                                   MODFLOW 6
                U.S. GEOLOGICAL SURVEY MODULAR HYDROLOGIC MODEL
                             TRANSPORT MODEL (GWT)
                            VERSION 6.6.0 12/20/2024

   MODFLOW 6 compiled Dec 31 2024 17:10:16 with Intel(R) Fortran Intel(R) 64
   Compiler Classic for applications running on Intel(R) 64, Version 2021.7.0
                             Build 20220726_000000

This software has been approved for release by the U.S. Geological 
Survey (USGS). Although the software has been subjected to rigorous 
review, the USGS reserves the right to update the software as needed 
pursuant to further analysis and review. No warranty, expressed or 
implied, is made by the USGS or the U.S. Government as to the 
functionality of the software and related material nor shall the 
fact of release constitute any such warranty. Furthermore, the 
software is released on condition that neither the USGS nor the U.S. 
Government shall be held liable for any damages resulting from its 
authorized or unauthorized use. Also refer to the USGS Water 
Resources Software User Rights Notice for complete use, copyright, 
and distribution information.


As a work of the United States Government, this USGS product is 
in the public domain within the United States. You can copy, 
modify, distribute, and perform the work, even for commercial 
purposes, all without asking permission. Additionally, USGS 
waives copyright and related rights in the work worldwide 
through CC0 1.0 Universal Public Domain Dedication 
(https://creativecommons.org/publicdomain/zero/1.0/).

The following GNU Lesser General Public License (LGPL) libraries
are used in this USGS product:

    SPARSKIT version 2.0
      ilut, luson, and qsplit 
      (https://www-users.cse.umn.edu/~saad/software/SPARSKIT/)

    RCM - Reverse Cuthill McKee Ordering
      (https://people.math.sc.edu/Burkardt/f_src/rcm/rcm.html)

    BLAS - Basic Linear Algebra Subprograms Level 1
      (https://people.math.sc.edu/Burkardt/f_src/blas1_d/blas1_d.html)

    SPARSEKIT - Sparse Matrix Utility Package
      amux, dperm, dvperm, rperm, and cperm
      (https://people.sc.fsu.edu/~jburkardt/f77_src/sparsekit/sparsekit.html)

The following BSD-3 License libraries are used in this USGS product:

    Modern Fortran DAG Library
      Copyright (c) 2018, Jacob Williams
      All rights reserved.
      (https://github.com/jacobwilliams/daglib)

MODFLOW 6 compiler options: /O2 /heap-arrays:0 /fpe:0 /traceback /nologo /fpp
/c /module:win64\mod_mf6\ /object:win64\obj_mf6\

System command used to initiate simulation:
C:\Users\saulm\Documents\GitHub\examplesMf6VoronoiMining\p4ContaminantPlumeTailingsStorageMF6\bin\mf6.exe

MODFLOW was compiled using uniform precision.

Real Variables
  KIND: 8
  TINY (smallest non-zero value):    2.225074-308
  HUGE (largest value):    1.797693+308
  PRECISION: 15
  SIZE IN BITS: 64

Integer Variables
  KIND: 4
  HUGE (largest value): 2147483647
  SIZE IN BITS: 32

Long Integer Variables
  KIND: 8
  HUGE (largest value): 9223372036854775807
  SIZE IN BITS: 64

Logical Variables
  KIND: 4
  SIZE IN BITS: 32
 
 NAMEFILE OPTIONS:
    FLOWS WILL BE SAVED TO BUDGET FILE SPECIFIED IN OUTPUT CONTROL
 END NAMEFILE OPTIONS:

 DISV -- VERTEX GRID DISCRETIZATION PACKAGE, VERSION 1 : 12/23/2015 - INPUT READ FROM MEMPATH: __INPUT__/GWTMODEL/DISV                           


 Setting Discretization Options
 End Setting Discretization Options

 Setting Discretization Dimensions
    NLAY = 19
    NCPL = 7362
    NVERT = 10857
 End Setting Discretization Dimensions

 Setting Discretization Griddata
    TOP set from input file
    BOTM set from input file
 End Setting Discretization Griddata

 Discretization Vertex data loaded
 Discretization Cell2d data loaded

 DSP-- DISPERSION PACKAGE, VERSION 1, 1/24/2018 INPUT READ FROM MEMPATH: __INPUT__/GWTMODEL/DSP                            



 FMI -- FLOW MODEL INTERFACE, VERSION 2, 8/17/2023 INPUT READ FROM UNIT 1018


 # File generated by Flopy version 3.9.3 on 09/05/2025 at 16:06:12.
 PROCESSING FMI OPTIONS
    MASS WILL BE ADDED OR REMOVED TO COMPENSATE FOR FLOW IMBALANCE.
 END OF FMI OPTIONS
 PROCESSING FMI PACKAGEDATA

 OPENED ../modelFiles/mf6Model.hds
 FILE TYPE:DATA(BINARY)   UNIT 1029   STATUS:UNKNOWN             
 FORMAT:UNFORMATTED            ACCESS:STREAM              
 ACTION:READWRITE           

Reading binary file to determine number of records per time step.
Detected 19 unique records in binary file.

 OPENED ../modelFiles/mf6Model.cbc
 FILE TYPE:DATA(BINARY)   UNIT 1030   STATUS:UNKNOWN             
 FORMAT:UNFORMATTED            ACCESS:STREAM              
 ACTION:READWRITE           

Reading budget file to determine number of terms per time step.
   2.522880E+08          STO-SS                 
   2.522880E+08          STO-SY                 
   2.522880E+08    FLOW-JA-FACE                 
   2.522880E+08      DATA-SPDIS NPF             
   2.522880E+08        DATA-SAT NPF             
   2.522880E+08             DRN DRN_0           
   2.522880E+08             GHB GHB_0           
   2.522880E+08            RCHA RCHA_0          
   2.522880E+08           EVTA  EVTA_0          
Detected 9 unique flow terms in budget file.
 END OF FMI PACKAGEDATA

 ADV-- ADVECTION PACKAGE, VERSION 1, 8/25/2017 INPUT READ FROM UNIT 1020


 # File generated by Flopy version 3.9.3 on 09/05/2025 at 16:06:12.
 PROCESSING ADVECTION OPTIONS
    ADVECTION WEIGHTING SCHEME HAS BEEN SET TO: UPSTREAM
 END OF ADVECTION OPTIONS
 Setting DSP Options
    XT3D formulation [0=INACTIVE, 1=ACTIVE, 3=ACTIVE RHS] set to: 1
 End Setting DSP Options

 Setting DSP Griddata
    ALH set from input file
    ATH1 set from input file
 End Setting DSP Griddata


 CNC   -- CNC PACKAGE, VERSION 8, 2/22/2014 INPUT READ FROM MEMPATH: __INPUT__/GWTMODEL/CNC_0                          

 PROCESSING CNC BASE OPTIONS
 END OF CNC BASE OPTIONS

 PROCESSING CNC BASE DIMENSIONS
    MAXBOUND =    1624
 END OF CNC BASE DIMENSIONS
    STRT set from input file

 MST -- MOBILE STORAGE AND TRANSFER PACKAGE, VERSION 1, 7/29/2020 INPUT READ FROM UNIT 1019


 # File generated by Flopy version 3.9.3 on 09/05/2025 at 16:06:12.
 PROCESSING MOBILE STORAGE AND TRANSFER OPTIONS
 END OF MOBILE STORAGE AND TRANSFER OPTIONS
 PROCESSING GRIDDATA

   MOBILE DOMAIN POROSITY =  0.5000000E-01
 END PROCESSING GRIDDATA

 SSM -- SOURCE-SINK MIXING PACKAGE, VERSION 1, 8/25/2017 INPUT READ FROM UNIT 1022


 # File generated by Flopy version 3.9.3 on 09/05/2025 at 16:06:12.
 PROCESSING SSM OPTIONS
 END OF SSM OPTIONS
 PROCESSING SOURCES
 END PROCESSING SOURCES
 OPTIONAL FILEINPUT BLOCK NOT FOUND.  CONTINUING.

The observation utility is active for "GWTMODEL"
 # File generated by Flopy version 3.9.3 on 09/05/2025 at 16:06:12.

Processing observation options:

Text output number of digits of precision set to: 10
The PRINT_INPUT option has been specified.


 OBSERVATIONS READ FROM FILE "gwtModel.obs"
 ----------------------------------------------------------------------------------------------------------------------------------------------------------------------------------------------------------------------------
 NAME                                     TYPE                                       TIME         LOCATION DATA                              OUTPUT FILENAME                                                                 
 ----------------------------------------------------------------------------------------------------------------------------------------------------------------------------------------------------------------------------
 OBS3                                     CONTINUOUS  CONCENTRATION                  ALL TIMES    "  10  1360"                               gwtModel.obs.csv                                                                
 OBS2                                     CONTINUOUS  CONCENTRATION                  ALL TIMES    "  10  1974"                               gwtModel.obs.csv                                                                
 OBS1                                     CONTINUOUS  CONCENTRATION                  ALL TIMES    "  10  2442"                               gwtModel.obs.csv                                                                
 ----------------------------------------------------------------------------------------------------------------------------------------------------------------------------------------------------------------------------


      THE LAST TIME STEP WILL BE PRINTED
      THE LAST TIME STEP WILL BE PRINTED
 # File generated by Flopy version 3.9.3 on 09/05/2025 at 16:06:12.

 PROCESSING OC OPTIONS

    BUDGET INFORMATION WILL BE WRITTEN TO:
      UNIT NUMBER: 1035
      FILE NAME: gwtModel.cbc

 OPENED gwtModel.cbc
 FILE TYPE:DATA(BINARY)   UNIT 1035   STATUS:REPLACE             
 FORMAT:UNFORMATTED            ACCESS:STREAM              
 ACTION:READWRITE           

    CONCENTRATION INFORMATION WILL BE WRITTEN TO:
      UNIT NUMBER: 1036
      FILE NAME: gwtModel.ucn

 OPENED gwtModel.ucn
 FILE TYPE:DATA(BINARY)   UNIT 1036   STATUS:REPLACE             
 FORMAT:UNFORMATTED            ACCESS:STREAM              
 ACTION:READWRITE           

 END OF OC OPTIONS

start timestep kper="1" kstp="1" mode="normal"


 BEGIN READING OUTPUT CONTROL FOR STRESS PERIOD 1
      THE LAST TIME STEP WILL BE SAVED
      THE LAST TIME STEP WILL BE SAVED
      THE LAST TIME STEP WILL BE PRINTED
      THE LAST TIME STEP WILL BE PRINTED

 END READING OUTPUT CONTROL FOR STRESS PERIOD 1

 FMI READING BUDGET TERMS FOR KSTP 1 KPER 1
   2.522880E+08          STO-SS                 
   2.522880E+08          STO-SY                 
   2.522880E+08    FLOW-JA-FACE                 
   2.522880E+08      DATA-SPDIS NPF             
   2.522880E+08        DATA-SAT NPF             
   2.522880E+08             DRN DRN_0           
   2.522880E+08             GHB GHB_0           
   2.522880E+08            RCHA RCHA_0          
   2.522880E+08           EVTA  EVTA_0          

 FMI READING HEAD FOR KSTP 1 KPER 1

 XT3D is active.



         ****FAILED TO MEET SOLVER CONVERGENCE CRITERIA IN TIME STEP 1 OF STRESS PERIOD 1****

end timestep


start timestep kper="1" kstp="2" mode="normal"


 FMI READING BUDGET TERMS FOR KSTP 2 KPER 1
   5.045760E+08          STO-SS                 
   5.045760E+08          STO-SY                 
   5.045760E+08    FLOW-JA-FACE                 
   5.045760E+08      DATA-SPDIS NPF             
   5.045760E+08        DATA-SAT NPF             
   5.045760E+08             DRN DRN_0           
   5.045760E+08             GHB GHB_0           
   5.045760E+08            RCHA RCHA_0          
   5.045760E+08           EVTA  EVTA_0          

 FMI READING HEAD FOR KSTP 2 KPER 1

         ****FAILED TO MEET SOLVER CONVERGENCE CRITERIA IN TIME STEP 2 OF STRESS PERIOD 1****

end timestep


start timestep kper="1" kstp="3" mode="normal"


 FMI READING BUDGET TERMS FOR KSTP 3 KPER 1
   7.568640E+08          STO-SS                 
   7.568640E+08          STO-SY                 
   7.568640E+08    FLOW-JA-FACE                 
   7.568640E+08      DATA-SPDIS NPF             
   7.568640E+08        DATA-SAT NPF             
   7.568640E+08             DRN DRN_0           
   7.568640E+08             GHB GHB_0           
   7.568640E+08            RCHA RCHA_0          
   7.568640E+08           EVTA  EVTA_0          

 FMI READING HEAD FOR KSTP 3 KPER 1

end timestep


start timestep kper="1" kstp="4" mode="normal"


 FMI READING BUDGET TERMS FOR KSTP 4 KPER 1
   1.009152E+09          STO-SS                 
   1.009152E+09          STO-SY                 
   1.009152E+09    FLOW-JA-FACE                 
   1.009152E+09      DATA-SPDIS NPF             
   1.009152E+09        DATA-SAT NPF             
   1.009152E+09             DRN DRN_0           
   1.009152E+09             GHB GHB_0           
   1.009152E+09            RCHA RCHA_0          
   1.009152E+09           EVTA  EVTA_0          

 FMI READING HEAD FOR KSTP 4 KPER 1

end timestep


start timestep kper="1" kstp="5" mode="normal"


 FMI READING BUDGET TERMS FOR KSTP 5 KPER 1
   1.261440E+09          STO-SS                 
   1.261440E+09          STO-SY                 
   1.261440E+09    FLOW-JA-FACE                 
   1.261440E+09      DATA-SPDIS NPF             
   1.261440E+09        DATA-SAT NPF             
   1.261440E+09             DRN DRN_0           
   1.261440E+09             GHB GHB_0           
   1.261440E+09            RCHA RCHA_0          
   1.261440E+09           EVTA  EVTA_0          

 FMI READING HEAD FOR KSTP 5 KPER 1

end timestep


start timestep kper="1" kstp="6" mode="normal"


 FMI READING BUDGET TERMS FOR KSTP 6 KPER 1
   1.513728E+09          STO-SS                 
   1.513728E+09          STO-SY                 
   1.513728E+09    FLOW-JA-FACE                 
   1.513728E+09      DATA-SPDIS NPF             
   1.513728E+09        DATA-SAT NPF             
   1.513728E+09             DRN DRN_0           
   1.513728E+09             GHB GHB_0           
   1.513728E+09            RCHA RCHA_0          
   1.513728E+09           EVTA  EVTA_0          

 FMI READING HEAD FOR KSTP 6 KPER 1

end timestep


start timestep kper="1" kstp="7" mode="normal"


 FMI READING BUDGET TERMS FOR KSTP 7 KPER 1
   1.766016E+09          STO-SS                 
   1.766016E+09          STO-SY                 
   1.766016E+09    FLOW-JA-FACE                 
   1.766016E+09      DATA-SPDIS NPF             
   1.766016E+09        DATA-SAT NPF             
   1.766016E+09             DRN DRN_0           
   1.766016E+09             GHB GHB_0           
   1.766016E+09            RCHA RCHA_0          
   1.766016E+09           EVTA  EVTA_0          

 FMI READING HEAD FOR KSTP 7 KPER 1

end timestep


start timestep kper="1" kstp="8" mode="normal"


 FMI READING BUDGET TERMS FOR KSTP 8 KPER 1
   2.018304E+09          STO-SS                 
   2.018304E+09          STO-SY                 
   2.018304E+09    FLOW-JA-FACE                 
   2.018304E+09      DATA-SPDIS NPF             
   2.018304E+09        DATA-SAT NPF             
   2.018304E+09             DRN DRN_0           
   2.018304E+09             GHB GHB_0           
   2.018304E+09            RCHA RCHA_0          
   2.018304E+09           EVTA  EVTA_0          

 FMI READING HEAD FOR KSTP 8 KPER 1

end timestep


start timestep kper="1" kstp="9" mode="normal"


 FMI READING BUDGET TERMS FOR KSTP 9 KPER 1
   2.270592E+09          STO-SS                 
   2.270592E+09          STO-SY                 
   2.270592E+09    FLOW-JA-FACE                 
   2.270592E+09      DATA-SPDIS NPF             
   2.270592E+09        DATA-SAT NPF             
   2.270592E+09             DRN DRN_0           
   2.270592E+09             GHB GHB_0           
   2.270592E+09            RCHA RCHA_0          
   2.270592E+09           EVTA  EVTA_0          

 FMI READING HEAD FOR KSTP 9 KPER 1

end timestep


start timestep kper="1" kstp="10" mode="normal"


 FMI READING BUDGET TERMS FOR KSTP 10 KPER 1
   2.522880E+09          STO-SS                 
   2.522880E+09          STO-SY                 
   2.522880E+09    FLOW-JA-FACE                 
   2.522880E+09      DATA-SPDIS NPF             
   2.522880E+09        DATA-SAT NPF             
   2.522880E+09             DRN DRN_0           
   2.522880E+09             GHB GHB_0           
   2.522880E+09            RCHA RCHA_0          
   2.522880E+09           EVTA  EVTA_0          

 FMI READING HEAD FOR KSTP 10 KPER 1
 UBDSV1 SAVING  STORAGE-AQUEOUS ON UNIT   1035 AT TIME STEP     10, STRESS PERIOD      1
 UBDSV1 SAVING     FLOW-JA-FACE ON UNIT   1035 AT TIME STEP     10, STRESS PERIOD      1
 UBDSV1 SAVING  FLOW-CORRECTION ON UNIT   1035 AT TIME STEP     10, STRESS PERIOD      1
 UBDSV06 SAVING  SOURCE-SINK MIX IN MODEL GWTMODEL         PACKAGE GWTMODEL        CONNECTED TO MODEL GWTMODEL         PACKAGE SSM              ON UNIT   1035 AT TIME STEP     10, STRESS PERIOD      1
 UBDSV06 SAVING              CNC IN MODEL GWTMODEL         PACKAGE GWTMODEL        CONNECTED TO MODEL GWTMODEL         PACKAGE CNC_0            ON UNIT   1035 AT TIME STEP     10, STRESS PERIOD      1
1
  CONCENTRATION IN LAYER   1 AT END OF TIME STEP  10 IN STRESS PERIOD    1
  ---------------------------------------------------------------------------

 ........................................................................................................................................................................................................................................................................................................................................................................................................................................................................................................................................................................................................................................................................................................................................................................................................................................................................................................................................................................................................................................
   1    0.000       0.000       0.000       0.000       0.000       0.000       0.000       0.000       0.000       0.000    
        0.000       0.000       0.000       0.000       0.000       0.000       0.000       0.000       0.000       0.000    
        0.000       0.000       0.000       0.000       0.000       0.000       0.000       0.000       0.000       0.000    
        0.000       0.000       0.000       0.000       0.000       0.000       0.000       0.000       0.000       0.000    
        0.000       0.000       0.000       0.000       0.000       0.000       0.000       0.000       0.000       0.000    
        0.000       0.000       0.000       0.000       0.000       0.000       0.000       0.000       0.000       0.000    
        0.000       0.000       0.000       0.000       0.000       0.000       0.000       0.000       0.000       0.000    
        0.000       0.000       0.000       0.000       0.000       0.000       0.000       0.000       0.000       0.000    
        0.000       0.000       0.000       0.000       0.000       0.000       0.000       0.000       0.000       0.000    
        0.000       0.000       0.000       0.000       0.000       0.000       0.000       0.000       0.000       0.000    
        0.000       0.000       0.000       0.000       0.000       0.000       0.000       0.000       0.000       0.000    
        0.000       0.000       0.000       0.000       0.000       0.000       0.000       0.000       0.000       0.000    
        0.000       0.000       0.000       0.000       0.000       0.000       0.000       0.000       0.000       0.000    
        0.000       0.000       0.000       0.000       0.000       0.000       0.000       0.000       0.000       0.000    
        0.000       0.000       0.000       0.000       0.000       0.000       0.000       0.000       0.000       0.000    
        0.000       0.000       0.000       0.000       0.000       0.000       0.000       0.000       0.000       0.000    
        0.000       0.000       0.000       0.000       0.000       0.000       0.000       0.000       0.000       0.000    
        0.000       0.000       0.000       0.000       0.000       0.000       0.000       0.000       0.000       0.000    
        0.000       0.000       0.000       0.000       0.000       0.000       0.000       0.000       0.000       0.000    
        0.000       0.000       0.000       0.000       0.000       0.000       0.000       0.000       0.000       0.000    
        0.000       0.000       0.000       0.000       0.000       0.000       0.000       0.000       0.000       0.000    
        0.000       0.000       0.000       0.000       0.000       0.000       0.000       0.000       0.000       0.000    
        0.000       0.000       0.000       0.000       0.000       0.000       0.000       0.000       0.000       0.000    
        0.000       0.000       0.000       0.000       0.000       0.000       0.000       0.000       0.000       0.000    
        0.000       0.000       0.000       0.000       0.000       0.000       0.000       0.000       0.000       0.000    
        0.000       0.000       0.000       0.000       0.000       0.000       0.000       0.000       0.000       0.000    
        0.000       0.000       0.000       0.000       0.000       0.000       0.000       0.000       0.000       0.000    
        0.000       0.000       0.000       0.000       0.000       0.000       0.000       0.000       0.000       22.32    
        0.000       0.000       0.000       0.000       0.000       0.000       0.000       0.000       28.35       25.49    
        0.000       0.000       0.000       0.000       0.000       0.000       28.05       0.000       0.000       0.000    
        0.000       0.000       0.000       0.000       0.000       0.000       28.10       28.29       0.000       0.000    
        11.77       8.642       0.000       0.000       0.000       0.000       16.41       0.000       0.000       18.03    
        20.05       0.000       25.80       21.55       0.000       0.000       22.10       24.73       27.29       0.000    
        7.057       0.000       0.000       0.000       0.000       0.000       27.07       25.34       0.000       0.000    
        0.000       0.000       0.000       0.000       0.000       29.95       0.000       0.000       0.000       25.83    
        24.48       0.000       24.88       0.000       0.000       0.000       29.90       0.000       24.99       28.92    
        34.83       0.000       26.85       0.000       0.000       29.56       26.51       29.59       0.000       0.000    
        19.63       0.000       0.000       0.000       0.000       0.000       0.000       0.000       0.000       0.000    
        0.000       0.000       0.000       0.000       0.000       29.60       27.37       22.77       0.000       41.18    
        28.20       0.000       0.000       0.000       0.000       28.70       0.000       0.000       0.000       0.000    
        0.000       0.000       0.000       0.000       0.000       0.000       0.000       0.000       0.000       0.000    
        46.39       45.84       0.000       0.000       0.000       0.000       26.47       0.000       34.32       47.42    
        47.47       41.37       40.91       45.44       35.25       41.57       0.000       40.12       23.34       0.000    
        8.172       0.000       0.000       30.20       0.000       0.000       0.000       44.06       12.64       0.000    
        29.28       0.000       35.58       0.000       28.16       0.000       39.09       38.54       33.70       30.36    
        0.000       27.99       0.000       0.000       36.66       0.000       0.000       0.000       0.000       34.57    
        28.83       33.09       30.60       27.28       33.77       0.000       0.000       0.000       0.000       0.000    
        0.000       0.000       32.45       0.000       28.76       27.61       0.000       0.000       0.000       47.79    
        46.81       0.000       41.28       0.000       53.03       47.54       0.000       0.000       0.000       0.000    
        0.000       0.000       0.000       0.000       0.000       0.000       0.000       0.000       60.57       58.94    
        0.000       0.000       0.000       53.70       54.68       0.000       0.000       0.000       0.000       0.000    
        0.000       0.000       0.000       0.000       27.26       55.37       0.000       55.04       50.30       52.10    
        0.000       0.000       57.13       50.90       48.88       0.000       0.000       0.000       0.000       0.000    
        0.000       0.000       0.000       0.000       0.000       0.000       39.13       0.000       24.99       56.59    
        58.92       0.000       37.69       53.77       0.000       31.81       42.39       52.59       0.000       0.000    
        54.26       0.000       40.02       39.25       0.000       0.000       48.58       43.25       0.000       52.93    
        0.000       15.66       62.89       0.000       0.000       0.000       0.000       0.000       0.000       0.000    
        0.000       0.000       0.000       0.000       0.000       0.000       0.000       0.000       0.000       0.000    
        0.000       0.000       0.000       0.000       0.000       0.000       0.000       0.000       0.000       0.000    
        0.000       0.000       0.000       0.000       0.000       0.000       0.000       0.000       0.000       0.000    
        58.14       0.000       55.33       0.000       0.000       0.000       0.000       0.000       0.000       0.000    
        0.000       0.000       0.000       0.000       0.000       0.000       0.000       0.000       0.000       0.000    
        0.000       0.000       0.000       0.000       0.000       0.000       0.000       0.000       0.000       0.000    
        0.000       0.000       0.000       0.000       0.000       0.000       0.000       0.000       0.000       91.21    
        0.000       86.17       0.000       0.000       0.000       0.000       0.000       0.000       0.000       0.000    
        0.000       0.000       0.000       0.000       0.000       0.000       0.000       0.000       0.000       0.000    
        0.000       0.000       0.000       0.000       0.000       0.000       0.000       0.000       0.000       0.000    
        0.000       0.000       0.000       0.000       0.000       0.000       0.000       0.000       0.000       0.000    
        0.000       0.000       0.000       0.000       0.000       0.000       0.000       0.000       0.000       0.000    
        0.000       0.000       0.000       0.000       0.000       0.000       95.40       0.000       0.000       0.000    
        123.7       120.7       0.000       0.000       0.000       78.21       0.000       0.000       0.000       0.000    
        0.000       0.000       0.000       0.000       0.000       83.45       107.8       0.000       100.7       113.2    
        0.000       0.000       0.000       103.0       0.000       0.000       0.000       103.4       0.000       90.23    
        0.000       92.14       100.0       34.76       100.1       0.000       0.000       0.000       0.000       65.92    
        0.000       0.000       0.000       0.000       0.000       0.000       0.000       0.000       0.000       0.000    
        0.000       86.46       0.000       0.000       0.000       0.000       0.000       0.000       0.000       0.000    
        0.000       0.000       0.000       0.000       0.000       0.000       0.000       0.000       0.000       0.000    
        0.000       0.000       0.000       0.000       0.000       128.0       124.3       0.000       0.000       0.000    
        0.000       0.000       0.000       0.000       0.000       0.000       127.2       118.1       0.000       0.000    
        0.000       0.000       0.000       0.000       0.000       0.000       0.000       126.1       53.70       0.000    
        94.45       125.1       111.7       0.000       0.000       0.000       0.000       0.000       0.000       69.67    
        0.000       0.000       0.000       0.000       0.000       55.59       0.000       0.000       101.2       0.000    
        102.1       0.000       0.000       0.000       0.000       0.000       0.000       116.6       0.000       128.6    
        106.7       0.000       0.000       0.000       114.9       0.000       0.000       0.000       0.000       0.000    
        0.000       0.000       0.000       0.000       116.0       0.000       0.000       0.000       0.000       0.000    
        0.000       0.000       0.000       0.000       0.000       0.000       0.000       0.000       0.000       0.000    
        0.000       0.000       0.000       0.000       124.6       129.5       0.000       128.1       133.2       0.000    
        0.000       0.000       0.000       77.04       132.7       0.000       0.000       0.000       0.000       0.000    
        0.000       0.000       0.000       0.000       0.000       0.000       0.000       0.000       0.000       0.000    
        0.000       0.000       0.000       0.000       0.000       0.000       0.000       0.000       0.000       0.000    
        0.000       0.000       0.000       0.000       0.000       0.000       0.000       0.000       0.000       0.000    
        0.000       0.000       0.000       0.000       0.000       0.000       0.000       0.000       0.000       0.000    
        0.000       0.000       0.000       0.000       0.000       0.000       0.000       0.000       0.000       0.000    
        0.000       0.000       0.000       0.000       0.000       0.000       0.000       0.000       0.000       0.000    
        0.000       0.000       0.000       0.000       0.000       0.000       0.000       0.000       0.000       0.000    
        0.000       0.000       0.000       0.000       0.000       0.000       0.000       0.000       0.000       0.000    
        0.000       0.000       0.000       0.000       0.000       0.000       0.000       0.000       0.000       0.000    
        0.000       0.000       0.000       0.000       0.000       0.000       0.000       0.000       0.000       0.000    
        0.000       0.000       0.000       0.000       0.000       0.000       0.000       0.000       0.000       0.000    
        0.000       0.000       0.000       0.000       0.000       0.000       0.000       0.000       0.000       0.000    
        0.000       0.000       0.000       0.000       0.000       0.000       0.000       0.000       0.000       0.000    
        0.000       0.000       0.000       0.000       0.000       0.000       0.000       0.000       0.000       0.000    
        0.000       0.000       0.000       0.000       0.000       0.000       0.000       0.000       0.000       0.000    
        0.000       0.000       0.000       0.000       0.000       0.000       0.000       0.000       0.000       0.000    
        0.000       0.000       0.000       0.000       0.000       0.000       0.000       0.000       0.000       0.000    
        0.000       0.000       0.000       0.000       0.000       0.000       0.000       0.000       0.000       0.000    
        0.000       0.000       0.000       0.000       0.000       0.000       0.000       0.000       0.000       0.000    
        0.000       0.000       0.000       0.000       0.000       0.000       0.000       0.000       0.000       0.000    
        0.000       0.000       0.000       0.000       0.000       0.000       0.000       0.000       0.000       0.000    
        0.000       0.000       0.000       0.000       0.000       0.000       0.000       0.000       0.000       0.000    
        0.000       0.000       0.000       0.000       0.000       0.000       0.000       0.000       0.000       0.000    
        0.000       0.000       0.000       0.000       0.000       0.000       0.000       0.000       0.000       0.000    
        0.000       0.000       0.000       0.000       0.000       0.000       0.000       0.000       0.000       0.000    
        0.000       0.000       0.000       0.000       0.000       0.000       0.000       0.000       0.000       0.000    
        0.000       0.000       0.000       0.000       0.000       0.000       0.000       0.000       0.000       0.000    
        0.000       0.000       0.000       0.000       0.000       0.000       0.000       0.000       0.000       0.000    
        0.000       0.000       0.000       0.000       0.000       0.000       0.000       0.000       0.000       0.000    
        0.000       0.000       0.000       0.000       0.000       0.000       0.000       0.000       0.000       0.000    
        0.000       0.000       0.000       0.000       0.000       0.000       0.000       0.000       0.000       0.000    
        0.000       0.000       0.000       0.000       0.000       0.000       0.000       0.000       0.000       0.000    
        0.000       0.000       0.000       0.000       0.000       0.000       9.760       0.000       0.000       5.482    
        0.000       0.000      0.1867       0.000       0.000       0.000       0.000       0.000       0.000       0.000    
        0.000       6.663       0.000       0.000       0.000       0.000       0.000       0.000       0.000       0.000    
        0.000       0.000       0.000       10.51       3.832       6.539       0.000       0.000       0.000       0.000    
        0.000       0.000       0.000       0.000       0.000       0.000       0.000       0.000       0.000       0.000    
        0.000       0.000       0.000       0.000       0.000       0.000       0.000       0.000       0.000       0.000    
        0.000       0.000       0.000       0.000       0.000       0.000       0.000       0.000       0.000       0.000    
        0.000       0.000       0.000       0.000       0.000       0.000       0.000       0.000       0.000       0.000    
        0.000       0.000       0.000       0.000       0.000       0.000       0.000       0.000       0.000       0.000    
        1.802      0.9927       0.000       0.000       0.000       0.000      0.2464       0.000       4.126       0.000    
        0.000       0.000       0.000       0.000       0.000       7.157       0.000       0.000       0.000       0.000    
        0.000       0.000       0.000       9.800       0.000       5.540       3.469       0.000      0.1209       0.000    
        0.000       0.000       0.000       0.000       0.000       4.022       0.000       0.000       0.000       0.000    
        0.000       0.000       0.000       0.000       0.000       0.000       0.000       0.000       0.000       0.000    
        0.000       0.000       0.000       0.000       0.000       0.000       0.000       0.000       0.000       0.000    
        0.000       4.710       0.000       0.000       0.000       0.000       0.000       0.000       2.282       1.485    
        0.000       0.000       0.000       0.000     -9.4319E-03  0.7604       0.000       0.000       0.000       0.000    
        0.000       0.000       0.000       0.000       0.000       0.000       0.000       0.000       0.000       0.000    
        0.000       0.000       0.000       0.000       0.000       0.000       0.000       0.000       0.000       0.000    
        0.000       0.000       2.507       0.000       0.000       0.000       0.000      0.4411       0.000      0.6959    
        0.000     -2.6749-185   0.000       0.000      0.1780       0.000       0.000       0.000       0.000       0.000    
        0.000       0.000       0.000       0.000       0.000       0.000       0.000       0.000       0.000       0.000    
        0.000       0.000       0.000       0.000       0.000       0.000       0.000       0.000       0.000      8.3829E-02
        0.000      6.9848E-02   0.000       0.000       0.000       0.000       0.000       0.000       0.000       0.000    
        0.000       0.000       0.000       0.000       0.000       0.000       0.000       0.000       0.000       0.000    
        0.000       0.000       0.000       0.000       0.000       0.000       0.000       0.000       0.000       0.000    
        0.000       0.000       0.000       0.000       0.000       0.000       0.000       0.000       0.000       0.000    
        0.000       0.000       0.000       0.000       0.000       0.000       0.000       0.000       0.000       0.000    
        0.000      3.0141E-03   0.000      0.2608       0.000       0.000       0.000       0.000       0.000       0.000    
        0.000       0.000       0.000       0.000       0.000       0.000       0.000       0.000       0.000       0.000    
        0.000       0.000       0.000       0.000       0.000       0.000       0.000       0.000       0.000       0.000    
        0.000       0.000       0.000       0.000       0.000       0.000       0.000       0.000       0.000       0.000    
        0.000      2.7066E-02   0.000       0.000       0.000       0.000       0.000       0.000       0.000       0.000    
        0.000       0.000      0.1211       0.000       0.000       0.000       0.000       0.000       0.000       0.000    
        0.000       0.000       0.000       0.000       0.000       0.000       0.000       0.000       0.000       0.000    
        0.000       0.000       0.000       0.000       0.000       0.000       0.000       0.000       0.000       0.000    
        0.000       0.000       0.000       0.000       0.000       0.000       0.000       0.000       0.000       0.000    
        0.000       0.000       0.000       0.000       0.000       0.000       0.000       0.000       0.000       0.000    
        0.000       0.000       0.000       0.000       0.000       0.000       0.000       0.000       0.000       0.000    
        0.000       0.000       0.000       0.000       0.000       0.000       0.000       0.000       0.000       0.000    
        0.000       0.000       0.000       0.000       0.000       0.000       0.000       0.000       0.000       0.000    
        0.000       0.000       0.000       0.000       0.000       0.000       0.000       0.000       0.000       0.000    
        0.000       0.000       0.000       0.000       0.000       0.000       0.000       0.000       0.000       0.000    
        0.000       0.000       0.000       0.000       0.000       0.000       0.000       0.000       0.000       0.000    
        0.000       0.000       0.000       0.000       0.000       0.000       0.000       0.000       0.000       0.000    
        0.000       0.000       0.000       0.000       0.000       0.000       0.000       0.000       0.000       0.000    
        0.000       0.000       0.000       0.000       0.000       0.000       0.000       0.000       0.000       0.000    
        0.000       0.000       0.000       0.000       0.000       0.000       0.000       0.000       0.000       0.000    
        0.000       0.000       0.000       0.000       0.000       0.000       0.000       0.000       0.000       0.000    
        0.000       0.000       0.000       0.000       0.000       0.000       0.000       0.000       0.000       0.000    
        0.000       0.000       0.000       0.000       0.000       0.000       0.000       0.000       0.000       0.000    
        0.000       0.000       0.000       0.000       0.000       0.000       0.000       0.000       0.000       0.000    
        0.000       0.000       0.000       0.000       0.000       0.000       0.000       0.000       0.000       0.000    
        0.000       0.000       0.000       0.000       0.000       0.000       0.000       0.000       0.000       0.000    
        0.000       0.000       0.000       0.000       0.000       0.000       0.000       0.000       0.000       0.000    
        0.000       0.000       0.000       0.000       0.000       0.000       0.000       0.000       0.000       0.000    
        0.000       0.000       0.000       0.000       0.000       0.000       0.000       0.000       0.000       0.000    
        0.000       0.000       0.000       0.000       0.000       0.000       0.000       0.000       0.000       0.000    
        0.000       0.000       0.000       0.000       0.000       0.000       0.000       0.000       0.000       0.000    
        0.000       0.000       0.000       0.000       0.000       0.000       0.000       0.000       0.000       0.000    
        0.000       0.000       0.000       0.000       0.000       0.000       0.000       0.000       0.000       0.000    
        0.000       0.000       0.000       0.000       0.000       0.000       0.000       0.000       0.000       0.000    
        0.000       0.000       0.000       0.000       0.000       0.000       0.000       0.000       0.000       0.000    
        0.000       0.000       0.000       0.000       0.000       0.000       0.000       0.000       0.000       0.000    
        0.000       0.000       0.000       0.000       0.000       0.000       0.000       0.000       0.000       0.000    
        0.000       0.000       0.000       0.000       0.000       0.000       0.000       0.000       0.000       0.000    
        0.000       0.000       0.000       0.000       0.000       0.000       0.000       0.000       0.000       0.000    
        0.000       0.000       0.000       0.000       0.000       0.000       0.000       0.000       0.000       0.000    
        0.000       0.000       0.000       0.000       0.000       0.000       0.000       0.000       0.000       0.000    
        0.000       0.000       0.000       0.000       0.000       0.000       0.000       0.000       0.000       0.000    
        0.000       0.000       0.000       0.000       0.000       0.000       0.000       0.000       0.000       0.000    
        0.000       0.000       0.000       0.000       0.000       0.000       0.000       0.000       0.000       0.000    
        0.000       0.000       0.000       0.000       0.000       0.000       0.000       0.000       0.000       0.000    
        0.000       0.000       0.000       0.000       0.000       0.000       0.000       0.000       0.000       0.000    
        0.000       0.000       0.000       0.000       0.000       0.000       0.000       0.000       0.000       0.000    
        0.000       0.000       0.000       0.000       0.000       0.000       0.000       0.000       0.000       0.000    
        0.000       0.000       0.000       0.000       0.000       0.000       0.000       0.000       0.000       0.000    
        0.000       0.000       0.000       0.000       0.000       0.000       0.000       0.000       0.000       0.000    
        0.000       0.000       0.000       0.000       0.000       0.000       0.000       0.000       0.000       0.000    
        0.000       0.000       0.000       0.000       0.000       0.000       0.000       0.000       0.000       0.000    
        0.000       0.000       0.000       0.000       0.000       0.000       0.000       53.57       0.000       56.75    
        0.000       0.000       0.000       0.000       0.000       0.000       0.000       0.000       0.000       0.000    
        0.000       0.000       0.000       0.000       0.000       0.000       0.000       0.000       0.000       0.000    
        0.000       0.000       0.000       0.000       0.000       0.000       0.000       0.000       0.000       0.000    
        0.000       0.000       0.000       65.09       51.14       30.59       32.82       26.24       0.000      0.1996    
        0.000       0.000       0.000       0.000       0.000       0.000       0.000       0.000       0.000       0.000    
        0.000       0.000       0.000       0.000       0.000       0.000       0.000       0.000       0.000       0.000    
        0.000       0.000       0.000       0.000       0.000       0.000       0.000       0.000       0.000       0.000    
        0.000       0.000       0.000       0.000       0.000       0.000       0.000       0.000       0.000       0.000    
        0.000       0.000       0.000       0.000       0.000       0.000       0.000       0.000       0.000       0.000    
        0.000       0.000       0.000       0.000       0.000       0.000       0.000       0.000       24.01       0.000    
        0.000       0.000       0.000       0.000       0.000       0.000       0.000       0.000       0.000       0.000    
        0.000       0.000       0.000       0.000       0.000       0.000       0.000       0.000       0.000       0.000    
        0.000       0.000       0.000       40.59       36.40       59.32       38.45       69.29       11.34       19.81    
        1.593       0.000       0.000       0.000       0.000       0.000       0.000       8.162       0.000       0.000    
        0.000       0.000       0.000       0.000       0.000       516.9       0.000       0.000       0.000       0.000    
        0.000       93.90       634.1       15.72       0.000       0.000       0.000       0.000       226.6       0.000    
        63.41       286.2       49.30       12.48       12.34       38.93       3.226       17.22       13.16       0.000    
        7.222       111.3       646.2       25.41       0.000       8.180       0.000       0.000       0.000       0.000    
        0.000       0.000       488.9       0.000       0.000       0.000       10.06       0.000       0.000       0.000    
        0.000       0.000       0.000       0.000       0.000       0.000       0.000       0.000       0.000       0.000    
        0.000       0.000       0.000       0.000       0.000       0.000       584.5       567.6       9.243       162.4    
        28.42       0.000      7.8298E-79   0.000       0.000       650.3       22.05       0.000       0.000       0.000    
        0.000       0.000       0.000       0.000       0.000       0.000       0.000       0.000       0.000       0.000    
        0.000       0.000       0.000       0.000       0.000       0.000       0.000       0.000       0.000       0.000    
        0.000       0.000       0.000       0.000       0.000       695.0       0.000       0.000       23.09       0.000    
        0.000      1.3733E-78   0.000       0.000       0.000       0.000       0.000       0.000       0.000       0.000    
        0.000       0.000       0.000       0.000       0.000       0.000       0.000       0.000       0.000       0.000    
        0.000       0.000       0.000       0.000       0.000       0.000       0.000       0.000       0.000       0.000    
        0.000       0.000       0.000       0.000       0.000       0.000       0.000       0.000       0.000       0.000    
        0.000       0.000       0.000       0.000       0.000       0.000       0.000       0.000       0.000       0.000    
        0.000       0.000       0.000       0.000       0.000       0.000       0.000       0.000       0.000       0.000    
        0.000       0.000       0.000       0.000       0.000       0.000       0.000       0.000       0.000       0.000    
        0.000       0.000       0.000       0.000       0.000       0.000       0.000       0.000       0.000       0.000    
        0.000       0.000       0.000       0.000       0.000       0.000       0.000       0.000       0.000       0.000    
        0.000       821.6       0.000       0.000       0.000       0.000       0.000       0.000       0.000       0.000    
        0.000       0.000       0.000       0.000       0.000       0.000       0.000       0.000       0.000       0.000    
        0.000       0.000       0.000       0.000       0.000       0.000       0.000       0.000       0.000       0.000    
        0.000       0.000       0.000       0.000       0.000       0.000       0.000       0.000       0.000       0.000    
        0.000       0.000       0.000       0.000       0.000       0.000       872.9       0.000       0.000       878.3    
        828.5       823.4       809.3       0.000       0.000       0.000       0.000       0.000       0.000       0.000    
        0.000       0.000       0.000       0.000       0.000       0.000       0.000       0.000       0.000       0.000    
        0.000       0.000       0.000       0.000       0.000       0.000       0.000       0.000       0.000       0.000    
        0.000       0.000       0.000       0.000       0.000       0.000       0.000       0.000       0.000       0.000    
        962.1       833.0       857.1       816.4       0.000       0.000       0.000       0.000       0.000       0.000    
        0.000       0.000       0.000       0.000       0.000       0.000       0.000       0.000       0.000       0.000    
        0.000       0.000       0.000       0.000       0.000       0.000       0.000       0.000       0.000       0.000    
        0.000       0.000       0.000       0.000       0.000       0.000       0.000       802.1       1031.       0.000    
        0.000       0.000       0.000       0.000       0.000       0.000       0.000       0.000       1072.       967.9    
        1059.       953.8       923.7       981.7       0.000       955.6       946.0       0.000       0.000       0.000    
        0.000       0.000       987.8       0.000       0.000       0.000       0.000       0.000       0.000       0.000    
        0.000       0.000       0.000       0.000       0.000       0.000       0.000       0.000       0.000       0.000    
        0.000       0.000       0.000       0.000       0.000       0.000       0.000       0.000       0.000       0.000    
        0.000       0.000       0.000       0.000       0.000       0.000       0.000       0.000       0.000       0.000    
        0.000       0.000       0.000       0.000       0.000       0.000       0.000       0.000       994.2       0.000    
        0.000       0.000       0.000       0.000       0.000       0.000       0.000       0.000       0.000       0.000    
        0.000       0.000       0.000       0.000       0.000       0.000       0.000       0.000       0.000       0.000    
        0.000       0.000       0.000       0.000       0.000       1080.       0.000       0.000       0.000       1014.    
        0.000       1086.       0.000       1003.       1006.       0.000       0.000       0.000       0.000       0.000    
        0.000       0.000       0.000       0.000       0.000       0.000       0.000       0.000       0.000       0.000    
        0.000       0.000       0.000       0.000       0.000       0.000       977.5       0.000       0.000       0.000    
        926.4       0.000       0.000       0.000       0.000       0.000       0.000       0.000      4.1700-174  3.5295-173
        0.000       0.000       0.000       0.000       1095.       0.000       1073.       1088.       1040.       946.0    
        1029.       0.000       1073.       0.000       0.000       0.000       0.000       0.000       0.000       0.000    
        0.000       0.000       0.000       1079.       0.000       0.000       1036.       0.000       0.000       0.000    
        0.000       0.000       0.000       0.000       0.000       1052.       0.000       0.000       0.000       0.000    
        0.000       0.000       0.000       0.000      1.0164-172   0.000       0.000     -1.9003-109 -1.9951-109   0.000    
       9.2882-167   0.000       0.000       0.000       0.000       0.000       1002.       0.000       0.000       0.000    
        1074.       1039.       0.000       0.000       0.000       0.000       0.000       0.000       0.000       0.000    
        0.000       0.000       0.000       0.000       0.000       0.000       0.000       0.000       0.000       0.000    
        0.000       0.000       0.000       0.000     -1.3610-108   0.000     -1.0042-111   0.000     -2.4501-110   0.000    
        1063.       0.000       0.000       0.000       1024.       0.000       0.000       0.000       1042.       0.000    
        0.000       0.000       0.000       0.000       0.000       0.000       0.000       0.000       0.000       0.000    
        0.000       0.000       0.000       0.000       0.000       0.000       0.000       0.000       0.000       0.000    
        0.000       0.000       0.000       0.000       0.000       0.000       0.000       0.000       0.000       0.000    
        0.000       0.000       0.000       0.000       0.000       0.000       0.000       0.000       0.000       0.000    
        0.000       0.000       0.000       0.000       0.000       0.000       0.000       0.000       0.000       0.000    
        0.000       0.000       0.000       0.000       0.000       0.000       0.000       1062.       0.000       0.000    
        0.000       0.000       0.000       0.000       0.000       0.000       0.000       0.000       0.000       0.000    
        0.000       0.000       0.000       0.000       0.000       0.000       0.000       0.000       0.000       0.000    
        0.000       0.000       0.000     -1.9819-108   0.000     -8.4700-112   0.000       0.000       0.000       0.000    
        0.000       0.000       0.000       0.000       0.000       0.000       0.000       0.000       0.000       0.000    
        0.000       0.000       0.000       0.000       0.000       0.000       0.000       0.000       0.000       0.000    
        0.000       0.000       0.000     -1.8090-107   0.000       0.000       0.000       0.000       0.000       0.000    
        0.000     -2.0290-111   0.000       0.000       0.000       0.000       0.000       0.000       0.000       0.000    
        0.000     -5.8517-111   0.000       0.000       0.000     -3.2466-111   0.000       0.000       0.000       0.000    
        0.000       0.000       0.000       0.000       0.000       0.000       0.000       0.000       0.000       0.000    
        0.000       0.000       0.000       0.000       0.000       0.000       0.000       0.000       0.000       0.000    
        0.000       0.000       0.000       0.000       0.000       0.000       0.000       0.000       0.000       0.000    
        0.000      8.0699E-69 -4.4556-110  6.8568-169   0.000     -1.3147E-91   0.000       0.000       0.000       0.000    
        0.000     -3.5994-110   0.000       0.000       0.000       0.000       0.000       0.000       0.000       0.000    
        0.000       0.000       0.000       0.000       0.000       0.000       0.000       0.000       0.000       0.000    
      -6.9512-111   0.000       0.000       0.000       0.000       0.000       0.000       0.000     -1.7831-109   0.000    
        0.000       0.000       0.000     -2.9190-108   0.000       0.000       0.000       0.000       0.000       0.000    
        0.000       0.000       0.000       0.000       0.000       0.000       0.000       0.000       0.000       0.000    
        0.000       0.000       0.000       0.000       0.000       0.000       0.000       0.000       0.000       0.000    
        0.000       0.000       0.000       0.000       0.000       0.000       0.000       0.000       0.000       0.000    
        0.000       0.000       0.000       0.000       0.000       0.000       0.000       0.000       0.000       0.000    
        0.000       0.000       0.000       0.000       0.000       0.000       0.000       0.000       0.000       0.000    
        0.000       0.000       0.000       0.000       0.000       0.000       0.000       0.000       0.000       0.000    
        0.000       0.000       0.000       0.000       0.000       0.000       0.000       0.000       0.000       0.000    
        0.000       0.000       0.000       0.000       0.000       0.000       0.000       0.000       0.000       0.000    
        0.000       0.000       0.000       0.000       0.000       0.000       0.000       0.000       0.000       0.000    
        0.000       0.000       0.000       0.000       0.000       0.000       0.000       0.000       0.000       0.000    
        0.000       0.000       0.000       0.000       0.000       0.000     -1.4645-111  2.2084E-67 -3.6662-110   0.000    
        0.000       0.000       0.000       0.000       0.000       0.000       0.000       0.000       0.000       0.000    
        0.000       0.000       0.000       0.000       0.000       0.000       0.000       0.000       0.000       0.000    
        0.000       0.000       0.000       0.000       0.000       0.000       0.000       0.000       0.000       0.000    
      -6.2462-108   0.000      9.3181-170   0.000       0.000       0.000       0.000       0.000       0.000       0.000    
        0.000       0.000       0.000       0.000       0.000       0.000       0.000       0.000       0.000       0.000    
        0.000       0.000       0.000       0.000       0.000       0.000       0.000       0.000      3.0429-166   0.000    
        0.000       0.000       0.000       0.000       0.000       0.000       0.000       0.000       0.000       0.000    
        0.000       0.000       0.000       0.000       0.000       0.000       0.000       0.000       0.000       0.000    
        0.000      2.1696-166   0.000       0.000       0.000      2.4606-168  5.9730-173   0.000       0.000       0.000    
        0.000       0.000       0.000       0.000       0.000       0.000       0.000       0.000       0.000       0.000    
        0.000       0.000       0.000       0.000       0.000       0.000       0.000       0.000       0.000       0.000    
      -9.7016-110   0.000       0.000       0.000       0.000       0.000       0.000       0.000       0.000       0.000    
        0.000       0.000      2.5289-167  6.7210-167   0.000      4.0719-170   0.000       0.000       0.000       0.000    
        0.000       0.000       0.000       0.000       0.000       0.000       0.000       0.000       0.000       0.000    
        0.000       0.000       0.000       0.000       0.000       0.000       0.000       0.000       0.000       0.000    
        0.000       0.000       0.000       0.000       0.000       0.000       0.000       0.000       0.000       0.000    
        0.000       0.000       0.000       0.000       0.000       0.000       0.000       0.000       0.000       0.000    
        0.000       0.000       0.000       0.000       0.000       0.000       0.000       0.000       0.000       0.000    
        0.000       0.000       0.000       0.000       0.000       0.000       0.000       0.000       0.000       0.000    
        0.000       0.000       0.000       0.000       0.000       0.000       0.000       0.000       0.000       0.000    
        0.000       0.000       0.000       0.000       0.000       0.000       0.000       0.000       0.000       0.000    
        0.000       0.000       0.000       0.000       0.000       0.000       0.000       0.000       0.000       0.000    
        0.000       0.000       0.000      1.3925-173   0.000       0.000       0.000       0.000       0.000       0.000    
        0.000       0.000      7.2961-166   0.000       0.000       0.000       0.000       0.000       0.000       0.000    
        0.000       0.000       0.000       0.000       0.000       0.000       0.000       0.000       0.000       0.000    
        0.000       0.000       0.000       0.000       0.000       0.000       0.000       0.000       0.000       0.000    
        0.000       0.000       0.000       0.000       0.000       0.000       0.000       0.000       0.000       0.000    
        0.000       0.000       0.000       0.000       0.000       0.000       0.000       0.000       0.000       0.000    
        0.000       0.000       0.000       0.000       0.000       0.000       0.000       0.000       0.000       0.000    
        0.000       0.000       0.000       0.000       0.000       0.000       0.000       0.000       0.000       0.000    
        0.000       0.000       0.000       0.000       0.000       0.000       0.000       0.000       0.000       0.000    
        0.000       0.000       0.000       0.000       0.000       0.000       0.000       0.000       0.000       0.000    
        0.000       0.000       0.000       0.000       0.000       0.000       0.000       0.000       0.000       0.000    
        0.000       0.000       0.000       0.000       0.000       0.000       0.000       0.000       0.000       0.000    
        0.000       0.000       0.000       0.000       0.000       0.000       0.000       0.000       0.000       0.000    
        0.000       0.000       0.000       0.000       0.000       0.000      2.7519-183   0.000       0.000       0.000    
        0.000       0.000       0.000       0.000       0.000       0.000       0.000       0.000       0.000       0.000    
        0.000       0.000       0.000       0.000       0.000       0.000       0.000       0.000       0.000       0.000    
        0.000       0.000       0.000       0.000       0.000       0.000       0.000       0.000       0.000       0.000    
        0.000       0.000       0.000       0.000       0.000       0.000       0.000       0.000       0.000       0.000    
        0.000       0.000       0.000       0.000       0.000       0.000       0.000       0.000       0.000       0.000    
        0.000       0.000       0.000       0.000       0.000       0.000       0.000       0.000       0.000       0.000    
        0.000       0.000       0.000       0.000       0.000       0.000       0.000       0.000       0.000       0.000    
        0.000       0.000       0.000       0.000       0.000       0.000       0.000       0.000       0.000       0.000    
        0.000       0.000       0.000       0.000       0.000       0.000       0.000       0.000       0.000       0.000    
        0.000       0.000       0.000       0.000       0.000       0.000       0.000       0.000       0.000       0.000    
        0.000       0.000       0.000       0.000       0.000       0.000       0.000       0.000       0.000       0.000    
        0.000       0.000       0.000       0.000       0.000       0.000       0.000       0.000       0.000       0.000    
        0.000       0.000       0.000       0.000       0.000       0.000       0.000       0.000       0.000       0.000    
        0.000       0.000       0.000       0.000       0.000       0.000       0.000       0.000       0.000       0.000    
        0.000       0.000       0.000       0.000       0.000       0.000       0.000       0.000       0.000       0.000    
        0.000       0.000       0.000       0.000       0.000       0.000       0.000       0.000       0.000       0.000    
        0.000       0.000       0.000       0.000       0.000       0.000       0.000       0.000       0.000       0.000    
        0.000       0.000       0.000       0.000       0.000       0.000       0.000       0.000       0.000       0.000    
        0.000       0.000       0.000       0.000      2.4401-186   0.000       0.000       0.000       0.000       0.000    
        0.000       0.000       0.000       0.000       0.000       0.000       0.000       0.000       0.000       0.000    
        0.000       0.000       0.000       0.000       0.000       0.000       0.000       0.000       0.000       0.000    
        0.000       0.000       0.000       0.000       0.000       0.000       0.000       0.000       0.000       0.000    
        0.000       0.000       0.000       0.000       0.000       0.000       0.000       0.000       0.000       0.000    
        0.000       0.000       0.000       0.000       0.000       0.000       0.000       0.000       0.000       0.000    
        0.000       0.000       0.000       0.000       0.000       0.000       0.000       0.000       0.000       0.000    
        0.000       0.000       0.000       0.000       0.000       0.000       0.000       0.000       0.000       0.000    
        0.000       0.000       0.000       0.000       0.000       0.000       0.000       0.000       0.000       0.000    
        0.000       0.000       0.000       0.000       0.000       0.000       0.000       0.000       0.000       0.000    
        0.000       0.000       0.000       0.000       0.000       0.000       0.000       0.000       0.000       0.000    
        0.000       0.000       0.000       0.000       0.000       0.000       0.000       0.000       0.000       0.000    
        0.000       0.000       0.000       0.000       0.000       0.000       0.000       0.000       0.000       0.000    
        0.000       0.000       0.000       0.000       0.000       0.000       0.000       0.000       0.000       0.000    
        0.000       0.000       0.000       0.000       0.000       0.000       0.000       0.000       0.000       0.000    
        0.000       0.000       0.000       0.000       0.000       0.000       0.000       0.000       0.000       0.000    
        0.000       0.000       0.000       0.000       0.000       0.000       0.000       0.000       0.000       0.000    
        0.000       0.000       0.000       0.000       0.000       0.000       0.000       0.000       0.000       0.000    
        0.000       0.000       0.000       0.000       0.000       0.000       0.000       0.000       0.000       0.000    
        0.000       0.000       0.000       0.000       0.000       0.000       0.000       0.000       0.000       0.000    
        0.000       0.000       0.000       0.000       0.000       0.000       0.000       0.000       0.000       0.000    
        0.000       0.000       0.000       0.000       0.000       0.000       0.000       0.000       0.000       0.000    
        0.000       0.000       0.000       0.000       0.000       0.000       0.000       0.000       0.000       0.000    
        0.000       0.000       0.000       0.000       0.000       0.000       0.000       0.000       0.000       0.000    
        0.000       0.000       0.000       0.000       0.000       0.000       0.000       0.000       0.000       0.000    
        0.000       0.000       0.000       0.000       0.000       0.000       0.000       0.000       0.000       0.000    
        0.000       0.000       0.000       0.000       0.000       0.000       0.000       0.000       0.000       0.000    
        0.000       0.000       0.000       0.000       0.000       0.000       0.000       0.000       0.000       0.000    
        0.000       0.000       0.000       0.000       0.000       0.000       0.000       0.000       0.000       0.000    
        0.000       0.000       0.000       0.000       0.000       0.000       0.000       0.000       0.000       0.000    
        0.000       0.000       0.000       0.000       0.000       0.000       0.000       0.000       0.000       0.000    
        0.000       0.000       0.000       0.000       0.000       0.000       0.000       0.000       0.000       0.000    
        0.000       0.000       0.000       0.000       0.000       0.000       0.000       0.000       0.000       0.000    
        0.000       0.000       0.000       0.000       0.000       0.000       0.000       0.000       0.000       0.000    
        0.000       0.000       0.000       0.000       0.000       0.000       0.000       0.000       0.000       0.000    
        0.000       0.000       0.000       0.000       0.000       0.000       0.000       0.000       0.000       0.000    
        0.000       0.000       0.000       0.000      3.6132-177   0.000       0.000       0.000       0.000       0.000    
        0.000       0.000       0.000       0.000       0.000       0.000       0.000       0.000       0.000       0.000    
        0.000       0.000       0.000       0.000       0.000       0.000       0.000       0.000       0.000       0.000    
        0.000       0.000       0.000       0.000       0.000       0.000       0.000       0.000       0.000       0.000    
        0.000       0.000       0.000       0.000       0.000       0.000       0.000       0.000       0.000       0.000    
        0.000       0.000       0.000       0.000       0.000       0.000       0.000       0.000       0.000       0.000    
        0.000      2.1780-175   0.000       0.000       0.000       0.000       0.000       0.000       0.000       0.000    
        0.000       0.000       0.000       0.000       0.000       0.000       0.000       0.000       0.000       0.000    
        0.000       0.000       0.000       0.000       0.000       0.000       0.000       0.000       0.000       0.000    
        0.000       0.000       0.000       0.000       0.000       0.000       0.000       0.000       0.000       0.000    
        0.000       0.000       0.000       0.000       0.000       0.000       0.000       0.000       0.000       0.000    
        0.000       0.000       0.000       0.000       0.000       0.000       0.000       0.000       0.000       0.000    
        0.000       0.000       0.000       0.000       0.000       0.000       0.000       0.000       0.000       0.000    
        0.000       0.000       0.000       0.000       0.000       0.000       0.000       0.000       0.000       0.000    
        0.000       0.000       0.000       0.000       0.000       0.000       0.000       0.000       0.000       0.000    
        0.000       0.000       0.000       0.000       0.000       0.000       0.000       0.000       0.000       0.000    
        0.000       0.000       0.000       0.000       0.000       0.000       0.000       0.000       0.000       0.000    
        0.000       0.000       0.000       0.000       0.000       0.000       0.000       0.000       0.000       0.000    
        280.8       0.000       367.4       0.000       0.000       0.000       557.7       0.000       0.000       0.000    
        0.000       0.000       0.000       0.000       0.000       0.000       0.000       0.000       0.000       0.000    
        0.000       0.000       0.000       0.000       0.000       0.000       0.000       0.000       0.000       0.000    
        0.000       0.000       0.000       0.000       0.000       0.000       0.000       0.000     -4.0388-113   0.000    
        0.000       0.000       0.000       0.000       0.000       0.000       0.000       0.000       0.000       0.000    
        222.8       0.000       0.000       0.000       0.000       0.000       0.000       0.000       0.000       0.000    
        1200.       0.000       0.000       0.000       247.5       1200.       1200.       1200.       1200.       0.000    
        0.000       462.3     -4.7106-115   0.000       0.000       0.000       0.000       0.000       0.000       0.000    
        0.000       0.000       0.000       0.000       0.000       0.000       0.000       0.000       0.000       0.000    
        0.000       0.000       0.000       0.000       0.000       0.000       0.000       0.000       0.000       0.000    
        0.000       0.000       0.000       0.000       0.000       0.000       0.000       0.000       0.000       0.000    
        0.000       0.000       0.000       0.000       0.000       0.000       0.000       0.000       0.000       0.000    
        1200.       0.000       0.000       0.000       0.000       0.000       0.000       0.000       0.000       0.000    
        0.000       0.000       0.000       0.000       162.8       0.000       0.000       0.000       0.000       1200.    
        1200.       1200.       53.38       0.000       1200.       0.000       0.000       0.000       0.000       0.000    
        0.000       0.000       0.000       0.000       0.000       0.000       0.000       0.000       0.000       0.000    
        0.000       0.000       0.000       0.000       0.000       0.000       0.000       0.000       0.000       0.000    
        0.000       0.000       0.000       0.000       0.000       0.000       0.000       0.000       0.000       0.000    
        0.000       0.000       0.000       0.000       0.000       0.000       0.000       0.000       0.000       0.000    
        0.000       0.000       0.000       0.000       0.000       0.000       196.5       0.000       0.000       0.000    
        0.000       0.000       0.000       0.000       0.000       0.000       0.000       0.000       0.000       0.000    
        0.000       0.000       0.000       0.000       0.000       0.000       0.000       0.000       0.000       0.000    
        0.000       0.000       0.000       1200.       0.000       0.000       0.000       0.000       0.000       0.000    
        0.000       0.000       0.000       0.000       0.000       0.000       0.000       0.000       0.000       320.6    
        0.000       112.4       1200.       1200.       1200.       1200.       1200.       1200.       1200.       415.2    
        0.000       0.000       0.000       0.000       0.000       0.000       0.000       0.000       0.000       0.000    
        0.000       0.000       0.000       0.000       0.000       0.000       0.000       0.000       0.000       0.000    
        0.000       0.000       0.000       0.000       0.000       0.000       0.000       1200.       0.000       0.000    
        0.000       0.000       0.000       0.000       0.000       279.7       0.000       0.000       0.000       0.000    
        0.000       55.92       0.000       1200.       396.2       0.000       0.000       350.9       50.38       187.5    
        1200.       1200.       1200.       1200.       1200.       1200.       0.000       1200.       0.000       0.000    
        0.000       0.000       0.000       0.000       0.000       0.000       0.000       0.000       0.000       0.000    
        0.000       0.000       0.000       0.000       0.000       0.000       0.000       1200.       0.000       0.000    
        0.000       0.000       0.000       0.000       0.000       0.000       0.000       1200.       0.000       0.000    
        0.000       0.000       0.000       0.000       0.000       0.000       0.000       0.000       0.000       0.000    
        0.000       0.000       0.000       0.000       0.000       0.000       0.000       0.000       0.000       0.000    
        0.000       0.000       0.000       0.000       0.000       0.000       0.000       0.000       0.000       0.000    
        0.000       0.000       0.000       0.000       0.000       0.000       0.000       0.000       0.000       0.000    
        0.000       0.000       0.000       0.000       0.000       0.000       0.000       0.000       0.000       0.000    
        0.000       0.000       0.000       0.000       0.000       0.000       0.000       0.000       0.000       1200.    
        0.000       1200.       1200.       1200.       1200.       0.000       1200.       1200.       1200.       0.000    
        1200.       1200.       0.000       1200.       345.8       0.000       0.000       0.000       0.000       0.000    
        0.000       0.000       0.000       0.000       0.000       0.000       0.000       0.000       0.000       0.000    
        0.000       0.000       0.000       0.000       1200.       1200.       0.000       0.000       0.000       0.000    
        0.000       0.000       0.000       0.000       0.000       0.000       1200.       0.000       1200.       1200.    
        1200.       1200.       0.000       0.000       1200.       1200.       1200.       1200.       1200.       1200.    
        1200.       0.000       1200.       0.000       359.0       0.000       0.000       0.000       0.000       0.000    
        0.000       0.000       0.000       0.000       0.000       0.000       0.000       1200.       0.000       0.000    
        1200.       0.000       0.000       0.000       0.000       0.000       0.000       0.000       1200.       0.000    
        0.000       0.000       0.000       0.000       0.000       0.000       0.000       1200.       0.000       0.000    
        1200.       0.000       1200.       1200.       1200.       185.4       1200.       1200.       1200.       1200.    
        1200.       0.000       1200.       0.000       0.000       0.000       0.000       0.000       0.000       0.000    
        0.000       0.000       0.000       0.000       0.000       0.000       0.000       0.000       0.000       0.000    
        229.1       0.000       0.000       0.000       0.000       1200.       0.000       0.000       1200.       1200.    
        0.000       0.000       0.000       0.000       0.000       0.000       0.000       0.000       0.000       0.000    
        0.000       0.000       0.000       0.000       0.000       0.000       0.000       0.000       0.000       0.000    
        0.000       0.000       0.000       0.000       0.000       0.000       0.000       0.000       0.000       0.000    
        0.000       0.000       0.000       0.000       0.000       0.000       0.000       0.000       0.000       0.000    
        0.000       0.000       0.000       0.000       0.000       0.000       0.000       0.000       0.000       0.000    
        0.000       0.000       0.000       0.000       0.000       0.000       0.000       0.000       0.000       0.000    
        0.000       0.000       0.000       1200.       0.000       0.000       0.000       1200.       0.000       1200.    
        1200.       1200.       1200.       309.0       0.000       0.000       0.000       0.000       0.000       0.000    
        0.000       0.000       0.000       0.000       0.000       0.000       0.000       0.000       33.90       0.000    
        0.000       0.000       0.000       0.000       0.000       1200.       1200.       0.000       0.000       0.000    
        0.000       0.000       1200.       0.000       0.000       0.000       0.000       0.000       0.000       0.000    
        0.000       0.000       0.000       1200.       0.000       0.000       0.000       1200.       0.000       0.000    
        0.000       1200.       1200.       1200.       1200.       1200.       1200.       1200.       0.000       0.000    
        0.000       0.000       0.000       0.000       0.000       0.000       0.000       0.000       0.000       0.000    
        0.000       0.000       1200.       0.000       0.000       0.000       0.000       288.7       0.000       0.000    
        1200.       0.000       0.000       1200.       0.000       0.000       0.000       0.000       0.000       0.000    
        0.000       0.000       0.000       0.000       0.000       0.000       0.000       0.000       0.000       0.000    
        0.000       0.000       0.000       0.000       0.000       0.000       0.000       0.000       0.000       0.000    
        0.000       0.000       0.000       0.000       0.000       0.000       0.000       0.000       0.000       0.000    
        0.000       0.000       0.000       0.000       0.000       0.000       0.000       0.000       0.000       0.000    
        0.000       0.000       0.000       0.000       0.000       0.000       0.000       0.000       1200.       0.000    
        0.000       1200.       1200.       1200.       1200.       1200.       0.000       1200.       0.000       0.000    
        0.000       0.000       0.000       0.000       0.000       0.000       0.000       1200.       0.000       0.000    
        213.5       0.000       0.000       0.000       0.000       0.000       1200.       0.000       1200.       0.000    
        1200.       0.000       1200.       1200.       182.8       0.000       1200.       1200.       1200.       1200.    
        0.000       1200.       1200.       1200.       0.000       63.04       0.000       0.000       0.000       0.000    
        0.000       0.000       0.000       0.000       0.000       1200.       0.000       0.000       130.9       0.000    
        1200.      0.3228       1200.       1200.       1200.       1200.       1200.       556.4       0.000       1200.    
        0.000       0.000       0.000       0.000       1200.       0.000       0.000       1200.       1200.       0.000    
[...]
       8.5556E-26  6.6405E-20  8.9034E-15  1.5570E-25  3.3079E-26  3.1614E-19  8.2080E-19  3.9534E-25  5.0282E-16  8.3801E-22
       3.2663E-15  3.0407E-06  1.4737E-09  1.3246E-05  3.2809E-05  3.0945E-06  1.3879E-14  8.4392E-08  2.8871E-09  1.1928E-13
       1.4035E-23  4.4217E-16 -5.7311E-27  1.1902E-27  2.1499E-27  6.7043E-15 -1.5924E-28  9.0885E-11  1.7129E-06  4.3211E-27
      -4.0385E-28 -3.2387E-28  5.9972E-18 -2.6567E-18  1.1362E-12  1.6762E-15  6.1474E-08  2.9163E-05  1.8122E-18 -3.5211E-27
      -1.5299E-29  1.3053E-13  2.5692E-17  1.1230E-29 -3.7027E-31  3.8070E-19 -3.1344E-34  7.1865E-18  1.0172E-33  8.2730E-19
       1.0724E-18 -9.0348E-35  7.9546E-18  4.8324E-36  2.0809E-17 -4.1829E-37 -1.5468E-15  3.7968E-14  3.3481E-38  4.0639E-19
      -1.2140E-39  1.0536E-20 -3.6190E-40  2.5126E-18  3.3814E-18  7.4666E-19 -2.6286E-41  1.2680E-05  5.1632E-11  6.0140E-07
       2.6046E-09  1.7212E-08  1.2956E-10 -8.7563E-12  5.1827E-18  1.5168E-05 -8.6249E-28 -7.5174E-28  4.1962E-17  2.9185E-16
       9.1266E-06  3.4489E-15  6.3539E-15 -2.0429E-28  1.4478E-14  3.3732E-19 -1.4739E-12  2.5726E-15  4.7559E-09  2.2293E-06
       2.0331E-22  6.7430E-24 -1.4951E-16  1.1079E-24  7.1806E-15  3.6886E-23  1.8125E-24 -2.0796E-27  9.8369E-23 -5.3291E-27
       1.5257E-26  1.7387E-21  5.0619E-25  4.9655E-24  1.7494E-20  7.0205E-20  1.1180E-16  8.6953E-23  1.8442E-15 -8.6618E-28
       8.0580E-10  1.1857E-07  1.0807E-05  3.4884E-06  1.3805E-15  5.2993E-17  3.6755E-20  2.1142E-18 -9.5046E-27  7.1869E-23
       6.1560E-10  5.7683E-09  1.0015E-06  1.4403E-13  1.4023E-07  2.3237E-15  6.8461E-24  2.1877E-06  1.2242E-15  1.7013E-09
       1.3759E-07  8.2852E-06  1.8666E-09  8.1081E-10  1.1244E-11 -4.2009E-26 -1.3284E-12  7.2032E-15  1.5801E-25  5.2821E-18
       2.3993E-19  2.0213E-26  6.9082E-13 -2.0758E-27 -1.0544E-27  1.7650E-24 -3.1105E-27  8.3297E-25  2.2786E-25  3.3514E-24
       1.4828E-22  1.5045E-21  1.4276E-21 -1.5828E-26  7.5034E-17 -1.7540E-27  2.4896E-18  4.1484E-12  4.4067E-21  9.5105E-16
       9.7119E-20  4.0727E-07  1.4974E-16  7.6640E-08  2.7078E-20  4.6636E-07 -4.9430E-28  1.5389E-28  3.9014E-16  2.1301E-17
       8.6067E-22  1.7511E-06 -1.5066E-26 -1.2948E-27  8.2281E-14 -2.7257E-14  1.2458E-15  4.8435E-19  2.0616E-10  5.8982E-17
      -4.9096E-28  1.8223E-27  1.9748E-25 -3.0933E-25  5.8162E-25  2.9299E-24  8.4253E-24  6.2825E-06  2.9954E-20  7.0166E-19
       8.2417E-19 -5.2686E-28  1.1511E-09  1.8610E-08  1.0943E-12  1.1338E-22  6.4691E-10  1.4342E-06  1.1529E-16  6.3120E-18
       2.3361E-08  3.0256E-07  7.1593E-10  1.5243E-09 -1.9224E-16  3.5724E-12  2.4386E-09 -9.7526E-14  1.4337E-19  3.6248E-19
      -2.7926E-17  1.0330E-21  1.2860E-12  7.7184E-21  2.1053E-19  3.0664E-27  1.6988E-24  2.8058E-17  2.2870E-18  3.7529E-06
       1.7869E-07  8.6682E-25  2.4980E-08  5.4729E-06  1.9038E-20 -4.1734E-27  7.3654E-26  2.8247E-15 -2.2457E-28  2.6839E-23
       6.8440E-14  1.5046E-16  6.9191E-16 -1.8180E-12 -1.8095E-17  8.7976E-08  4.9196E-07  4.3536E-26  1.0805E-27  4.3006E-28
       5.5826E-16  1.2207E-06  3.2675E-10  1.0101E-18  4.8547E-19 -1.9103E-28  8.9040E-30  7.0203E-19  2.2570E-31  3.4833E-07
      -4.1625E-32  1.3167E-18  1.0686E-33  1.7537E-19  8.2756E-07 -6.0666E-36  4.0981E-19  1.6167E-19  7.5564E-20 -2.2500E-36
       1.7644E-37  6.8121E-20  2.0242E-18 -2.4132E-39  1.1494E-39  7.0675E-20  6.7630E-41  3.7892E-20  2.9136E-41  3.8105E-19
       2.5837E-24  1.3878E-17  1.1954E-21  4.2001E-26 -8.7916E-21  2.6073E-23  3.5470E-11  6.0972E-25  1.3802E-23  1.7457E-16
       7.2363E-19  5.0638E-14  2.1851E-25  4.6242E-10  1.8897E-21  9.6202E-23  6.5068E-24  9.0935E-20  1.5874E-15  2.1983E-15
       1.9898E-19  5.0320E-17  7.2975E-18  4.3375E-21  1.8523E-16  4.5226E-17  1.8099E-19  1.2849E-09  7.5309E-13  4.0371E-08
       1.4578E-09  2.2142E-09  2.0150E-09  1.5116E-10  2.8634E-21 -2.1837E-14  8.0073E-20  3.8038E-16  6.1302E-23 -3.8527E-19
       1.4327E-19  3.3320E-26  2.8591E-26  1.1044E-08  6.1590E-23  8.0779E-11  1.0298E-18  1.3836E-24  5.1105E-16  5.2940E-22
       3.5006E-17  3.9323E-21  5.1482E-24  2.2936E-12 -2.1350E-12  1.9071E-28  3.1448E-28  2.6758E-07  7.8516E-16  1.0999E-23
       4.8113E-22  3.2490E-14  3.9877E-25  7.8028E-17  5.9616E-21  1.7793E-21  5.6484E-20  2.5038E-18  3.5404E-11  2.2924E-07
       1.0936E-08  1.2922E-22  5.4722E-09  2.2635E-07  3.3415E-17  4.4426E-08 -7.1664E-12  1.6502E-20  4.2105E-24  9.0825E-28
       9.0919E-19  1.5507E-21  4.0042E-17  3.3231E-25  6.2648E-12  1.4609E-13  1.2198E-07  2.3659E-09  2.9405E-09  2.4904E-10
       1.9015E-10  1.2447E-17  9.0283E-12 -1.6973E-26 -4.8818E-13  1.7941E-14  5.0288E-27 -2.8511E-16  4.6960E-27  5.0169E-08
       5.9374E-28  7.7099E-27  6.2131E-27 -1.2713E-18  2.6025E-13  2.8390E-19  5.2508E-15  2.0732E-21  1.5490E-17  2.9210E-20
       1.6499E-22  6.9565E-24 -7.4422E-13  2.6381E-18  1.0789E-08 -3.8158E-19 -7.2507E-10  1.9429E-19  6.2935E-20  7.8926E-27
       1.6978E-25 -8.6522E-28  2.1422E-24  5.4963E-19  7.8158E-10  2.9095E-16  3.5473E-27  4.5195E-10  4.7437E-20  2.6285E-08
       7.1938E-09  8.4528E-27  1.1806E-12  1.8259E-14  6.5386E-11  7.1313E-23  1.1277E-19  3.1346E-27  2.8588E-29  1.2212E-28
       7.2296E-27  3.1739E-24  1.3417E-25  4.2313E-18  1.1645E-16  4.8419E-16  3.0711E-11  6.3953E-29  7.9683E-19 -6.7536E-30
       4.9286E-31 -2.8210E-18 -1.1461E-32  2.6691E-20 -9.5910E-34  1.5847E-19  6.3447E-35  1.4256E-20  2.4039E-20  7.3966E-20
      -1.0752E-36  7.7349E-21  2.6735E-20 -2.2659E-38  4.0342E-20  2.2052E-21  6.9588E-21  4.2356E-39 -5.2948E-21 -1.6940E-22
      -8.2588E-41  1.5718E-10  1.5292E-41 -1.0687E-23  7.7643E-42  1.6668E-29  9.3067E-16  1.2271E-09  2.4780E-09  3.9772E-20
       3.8593E-11  5.7235E-11 -1.1510E-11 -2.3955E-13  6.1603E-20  1.2352E-15 -1.0176E-17 -2.4145E-19 -1.3923E-19  2.4858E-20
       2.1682E-20  1.4757E-17  3.4816E-22  3.6705E-27  5.6851E-09  7.0070E-12  1.5939E-09  5.2942E-12  2.7332E-14  3.9689E-17
       2.6567E-11  2.0784E-10  7.7810E-26  2.2932E-23  2.5810E-09  1.2635E-16  1.2286E-24 -2.8144E-14 -3.3401E-25  1.0314E-11
       8.3982E-21  2.6756E-29  1.9458E-12  1.3968E-24  3.3123E-13  4.4385E-26  4.8444E-11 -4.8784E-27  2.9784E-10  3.2395E-15
       2.0267E-19  6.1845E-29  2.0916E-11  1.0825E-13  7.1285E-28  2.1436E-28  7.2716E-29  1.1166E-16  4.0418E-10  1.7325E-14
       1.2396E-11 -2.0358E-13 -3.9259E-19  8.9355E-19 -4.9389E-13 -7.7663E-14 -1.1079E-14 -5.5891E-20  1.8780E-19 -1.8105E-20
       1.0355E-11  6.5536E-25  4.1709E-28  1.4424E-26 -5.6102E-12  1.4480E-23  4.0268E-17  1.8744E-10  2.0654E-10  5.7444E-12
       1.1117E-10  3.8221E-25  4.8856E-13  1.3303E-28 -8.7951E-29  2.1734E-29  3.8224E-27 -5.4783E-11  1.3937E-11 -7.2516E-20
       1.4631E-16  4.6941E-27  2.2970E-15  2.1412E-11  8.4667E-24  5.5618E-14  2.5449E-16  1.9149E-25  1.0296E-12 -6.3564E-20
       7.9914E-12  6.9980E-29 -4.9820E-12  2.8879E-12  3.1024E-13  3.9149E-13  2.6804E-13  8.2633E-16 -4.0021E-15 -4.9155E-20
       5.6734E-19 -1.7000E-20  2.1217E-21  5.1913E-20 -3.9384E-29  3.3511E-29  4.9849E-27  1.2828E-27  2.8988E-12  2.5641E-13
      -6.4966E-21  1.2770E-27  1.0227E-14  5.4132E-26  7.1747E-18  6.7752E-13  1.3637E-15  5.0850E-28  6.6205E-30 -1.1622E-16
       3.6699E-30  1.3490E-13  2.0304E-19  1.1698E-27  2.5685E-30  6.3373E-25  8.2415E-25  2.4751E-26  8.6563E-17  3.7645E-30
      -2.9627E-31  7.5700E-22  1.5401E-32 -4.5262E-22  2.6044E-22 -8.0392E-34 -2.4114E-36  3.0811E-23 -4.0677E-21  1.5191E-36
       4.7855E-22 -2.2858E-38  5.8599E-40  2.7558E-21  1.8040E-18  5.9171E-20  2.7091E-40 -1.4860E-22 -9.2112E-43  1.9580E-19
       3.9216E-28  7.1324E-29  1.9964E-29  1.2334E-12 -1.0132E-30  9.7902E-26  2.9454E-22  3.5845E-12 -4.1774E-14  5.7885E-27
       2.0705E-18 -7.7945E-16  2.8451E-20  4.4219E-15  9.9681E-18  5.1616E-31  6.0111E-28  2.8445E-13  1.4634E-17  2.6996E-18
       1.6958E-28  2.3181E-16  1.1417E-13  1.5145E-31  1.3488E-27  4.8544E-14  5.7643E-17  1.4291E-16  6.7349E-15 -6.0008E-14
       5.8820E-12  1.4451E-13  1.8761E-13  3.4534E-13  2.9899E-13  1.9004E-14  5.9208E-24  2.3786E-14  1.4169E-15  3.4296E-25
      -1.2319E-18  2.5070E-26  5.8173E-16  6.3155E-19  2.1663E-28  2.6585E-29  1.3237E-28  3.8488E-23  2.9936E-27 -3.7520E-30
       7.0109E-14  4.8699E-15  7.9825E-28  8.7101E-20  1.6987E-15  2.4648E-30  1.0718E-17  7.1032E-20  1.5346E-13  6.4838E-14
       8.0819E-28  2.4502E-29 -3.7735E-30  3.6465E-28  1.7507E-26  6.0368E-27  6.0859E-15  2.5674E-14  1.0671E-14  8.4855E-15
       1.7973E-15  1.2908E-29  3.2486E-20  5.2779E-30  1.7800E-27  3.6434E-28  1.9095E-17  1.5255E-20  1.1370E-14  4.6503E-21
       6.8641E-19  1.1010E-14  2.7311E-29  2.7233E-19  1.8510E-20  9.2471E-19 -2.5095E-19  9.8637E-29  3.5393E-28  2.4553E-27
       3.2122E-15  1.1116E-17  1.0453E-16  1.3965E-16  9.2460E-16  2.3508E-18  5.2733E-28  6.0724E-29 -6.8487E-30  1.6910E-29
       7.3111E-16  4.5753E-29  3.4979E-16  2.4616E-15  1.2267E-28  1.6271E-16 -1.9843E-30  1.7749E-27  2.5755E-27  1.2482E-21
       7.6324E-28  5.1113E-19  5.2138E-22  2.1138E-15  1.1640E-29  4.2021E-15  2.6015E-28 -1.3576E-30  8.0554E-16  3.5240E-20
       4.2338E-29  3.6658E-28  3.9362E-29  7.9750E-18  6.6086E-19  5.8504E-17  1.2634E-17  1.5782E-18  1.3775E-17  3.7113E-31
       4.1492E-22  9.7977E-16  8.3372E-31  5.4664E-17 -3.1916E-32  1.0480E-17 -4.7687E-33  1.0189E-19  1.2214E-34  2.4189E-21
      -2.7732E-35 -3.5737E-23  1.7215E-38  2.8187E-19 -2.4028E-23  3.6717E-38 -5.6420E-23  7.9176E-40  8.8136E-20  1.9924E-20
       4.2889E-41 -4.8171E-24  4.2915E-19  2.9163E-42  9.4284E-29  8.8829E-28  1.0894E-27  9.8769E-17  3.8439E-19  1.2631E-16
       7.1430E-17  1.1117E-16  1.2681E-18  1.2970E-28  6.8336E-17  4.4861E-28 -1.3122E-24  3.3807E-19  1.4981E-16  2.1950E-18
       1.9282E-25  7.2143E-18  6.1973E-28  1.7573E-27  1.9202E-18  2.2320E-28  1.1507E-27  1.3017E-17  9.4676E-18  2.1031E-18
       9.2580E-28  9.2667E-28  2.9664E-17 -6.5458E-27  1.2418E-18  1.1103E-17  3.9158E-28  2.9196E-17  1.1894E-17  5.9382E-18
       1.0975E-18  6.0267E-28  5.2173E-18  1.3195E-17  5.9764E-28  1.9420E-18  6.9980E-28  5.3520E-28  3.0516E-21 -1.0665E-27
       4.3792E-18  5.8877E-18  1.9522E-19  9.8635E-18  9.3000E-19  1.7658E-27  4.8973E-28  4.1640E-20 -7.6276E-29  3.6241E-26
       4.0930E-18  6.0208E-28  2.0948E-18  3.7628E-18  1.6001E-18  4.5690E-19  1.0915E-27  9.9298E-23  2.3090E-24  4.3676E-28
       3.5395E-18  1.1805E-27  2.4260E-27  6.8784E-20  3.1552E-27  4.4661E-27  6.1588E-27  1.0196E-18  1.2808E-18  3.5224E-20
       4.6792E-19  3.7137E-19  1.4656E-19  5.0294E-19  8.9016E-20  8.6267E-20 -2.3315E-30 -2.8167E-32  1.1637E-32  2.5980E-20
       4.4881E-21  7.8111E-20  1.7067E-33 -2.3220E-33 -7.7343E-36  2.3944E-35  1.0720E-19  2.4204E-19 -5.2117E-37  3.4075E-22
       3.1760E-39  6.3529E-23  1.0390E-39  3.3090E-19  3.7595E-41 -7.5441E-24  2.1919E-42  1.6952E-27  1.2333E-27  2.4019E-18
       6.7416E-19 -2.0706E-24  7.0487E-21  2.2803E-27  2.4396E-27  3.5249E-20  1.9329E-18  5.4674E-27  2.6994E-19  1.8011E-18
      -7.1051E-25  9.8000E-20  1.5629E-25  1.6268E-18  4.4041E-27  4.3631E-27  6.2030E-27  4.2003E-27  1.0078E-18  9.3488E-19
       8.8513E-19  2.2921E-27 -1.1955E-28  4.3633E-24  5.8435E-19  5.7420E-27  1.6428E-19  4.1920E-21  7.6912E-29  8.4373E-27
       1.0356E-25  4.0559E-19  7.7993E-27  3.9603E-19  3.4712E-20  9.1592E-27  1.7792E-22  1.0247E-26  1.8124E-21  1.0767E-26
       1.4781E-26  1.7511E-26  1.4806E-19  2.3584E-26  2.4193E-26  1.7110E-22  9.6700E-21  2.1285E-19  5.9346E-20  4.0280E-19
       7.1063E-20  6.5994E-30  3.3149E-31  5.9461E-21  8.7004E-33  2.7052E-20  1.8824E-34  3.8155E-22 -1.8147E-34  1.2662E-19
      -1.1429E-35  3.9730E-23  5.1827E-20  1.9424E-36  4.2662E-24  9.1895E-38  9.2048E-20 -3.3425E-25 -6.4610E-39  1.7635E-40
      -4.9456E-26  1.9097E-41 -9.3955E-27  1.0630E-42  1.2670E-26  1.3210E-26  3.1148E-26  4.8065E-27  7.0255E-21  2.0389E-25
       1.9372E-26  5.5989E-26  1.7035E-26  2.2180E-20  2.6694E-26  5.9405E-24  4.0670E-28  2.9103E-26  3.0187E-26  4.5410E-21
       4.8503E-26  2.6603E-21  1.9586E-25  1.6993E-24  1.3912E-23 -2.0792E-28  1.3491E-22  9.8763E-30  1.7879E-22 -8.2968E-31
       6.0627E-23  2.0412E-30  1.2946E-22 -4.3005E-31  4.7574E-22 -3.0396E-32  1.8882E-21 -1.2087E-33  6.3691E-21 -2.0855E-35
       1.2573E-20  2.7410E-36  8.9829E-21  1.5463E-36  4.5983E-21  9.3674E-38  1.0018E-21 -4.2648E-39  1.0203E-23 -3.7022E-40
       3.3265E-24 -3.8587E-42  1.0949E-25  8.6723E-42  1.2534E-26  1.6742E-26 -1.1715E-26  5.2202E-26 -1.6931E-27  4.6564E-25
      -1.1437E-28  4.7432E-24  6.1503E-29  1.4235E-23 -6.7447E-30  1.5122E-23  1.9128E-31  7.6328E-24 -1.7920E-32  2.3373E-23
      -3.2280E-32  1.8869E-23 -1.8390E-32  6.2219E-23  1.4774E-33  3.7860E-22  8.3873E-35  9.9242E-22  3.2192E-36  1.4744E-21
      -8.8245E-38  6.6874E-22 -3.0382E-38  1.2326E-22 -3.0641E-39 -2.9085E-24 -4.6615E-40  2.1373E-25 -4.0122E-41  2.4658E-27
       3.2879E-27  5.8775E-27  1.1065E-27  3.1811E-26 -1.9669E-28  2.8304E-25  1.5004E-30  3.7556E-25  4.6311E-31  2.4209E-25
      -1.0886E-31  3.3316E-25  6.3976E-33  2.8911E-24 -2.0704E-34  8.2875E-24 -2.0029E-34  7.1893E-25  9.7430E-35 -7.8853E-24
       9.7817E-35  5.9197E-23 -1.9970E-36  2.0403E-22 -1.3355E-37  7.1370E-23 -8.8317E-39  1.0988E-23 -9.2017E-40 -3.9366E-25
       3.0984E-41  1.3384E-26  3.8850E-42  2.6068E-28  3.2146E-28  1.1786E-27  1.0524E-28  4.0114E-27 -8.9294E-30 -4.3934E-28
       3.6304E-31  1.2485E-27  7.7642E-33  2.0225E-26 -2.1432E-33  2.6290E-25  1.3972E-34  5.4958E-25 -3.0394E-35  2.0079E-26
       6.4914E-36 -1.2998E-24  1.4795E-36  1.4247E-24  1.3479E-36  1.4885E-23 -3.5423E-37  3.8226E-24 -1.3791E-39  3.6147E-25
       2.7212E-40 -1.6812E-26  2.5380E-41  8.1676E-28  3.5037E-42  6.6229E-38  2.6406E-29 -1.7051E-29  1.4358E-29 -9.1177E-31
       2.5186E-30  4.2834E-29 -3.5077E-31  4.2055E-29  1.5098E-32  1.1949E-27 -2.5957E-34  1.1922E-26 -4.0149E-36  2.5534E-26
       3.3363E-35  8.8453E-27  2.0829E-36 -3.2940E-27 -4.6161E-37  1.3139E-25  7.6842E-38  5.9912E-25  2.3526E-38  1.0670E-25
      -1.0290E-38  4.8256E-27  1.5079E-39 -2.6349E-28  1.2473E-40  3.3708E-29 -1.6584E-40 -5.4983E-35  4.1894E-31 -1.6198E-30
      -5.8124E-31 -1.3557E-30  2.6213E-32  4.1246E-30 -7.9297E-33  5.2734E-29  5.9200E-34  3.6489E-28 -1.0785E-35  2.6945E-28
       7.5012E-38  9.2493E-28  1.9976E-36  3.8662E-27 -3.4601E-36  9.8098E-27 -7.9496E-38  1.5504E-26  4.4801E-38  1.7429E-27
      -4.9881E-39  4.3450E-29 -1.6002E-39 -4.5482E-29 -2.4806E-40  1.6526E-30  6.9157E-39 -9.3370E-33  1.7702E-32 -3.4235E-32
       1.8848E-31 -1.8284E-34  8.8405E-31 -5.6298E-35  3.0489E-30  1.8563E-35  1.2610E-29 -3.6046E-37  3.3910E-29  3.4600E-39
       3.4451E-28 -2.3330E-37  1.3742E-27 -1.7250E-37  1.9374E-27  1.3539E-37  1.6171E-28  2.1009E-38  9.9184E-30  2.7029E-39
      -1.8489E-31  8.9399E-40 -3.1672E-33 -1.4509E-32  4.8200E-33 -7.9759E-34  2.6554E-32  1.5210E-36  7.9853E-32 -1.5893E-36
       2.8137E-31  2.9779E-37  1.0538E-30 -1.5770E-38  1.3898E-29  5.3273E-39  4.6989E-29  6.7120E-39  9.2707E-29 -2.7179E-38
       1.3918E-29  8.9392E-38  1.1272E-30  2.3344E-38  1.7131E-33  9.7296E-39 -3.8524E-34  1.9763E-34  7.2003E-34 -5.2050E-36
       2.9383E-33  1.3420E-36  7.4587E-33  5.2075E-37  4.1991E-32 -4.6662E-39  8.2153E-31  5.5474E-39  4.1844E-30  4.6889E-40
       5.5229E-30  1.2126E-38  1.0686E-30 -2.5075E-38  9.9011E-32  6.5716E-39  5.1713E-33 -2.9656E-39  2.9469E-35  3.4797E-34
       4.5410E-35  1.1534E-34  2.4518E-35  3.1285E-34  1.3965E-36  1.5519E-33  2.9142E-37  1.3463E-33  4.3001E-38  2.1876E-32
       5.2752E-39  1.8575E-31 -4.0424E-41  3.8030E-32  3.4684E-39  6.5939E-33  2.5397E-40  6.5554E-34  8.4002E-40  2.1690E-36
       6.5648E-35  4.3776E-36  1.2875E-35  7.0417E-36  6.1957E-35  7.7011E-37  2.6857E-34  1.2100E-37  6.6173E-34  1.9243E-38
      -6.8462E-34  3.9493E-39  2.1355E-33  1.0708E-39  3.5345E-34  6.9410E-40  4.3408E-35  6.8253E-41  4.2141E-37  4.9456E-36
       1.0756E-36  3.9589E-36  6.1790E-37  1.0839E-35  7.9901E-38  2.0611E-35  1.5251E-38  9.6302E-36  3.2038E-39  1.9576E-35
       9.1585E-40  1.1441E-35  4.0900E-40  2.1237E-36  5.6844E-38  1.3590E-37  2.7827E-37  2.2497E-37  4.0600E-38  2.9204E-37
       5.7147E-39  4.4337E-37  1.0660E-39  8.1112E-37  2.2254E-40  2.1055E-37  1.6901E-41  3.9472E-39  2.2143E-38  3.6548E-39
       3.6157E-39  9.1207E-39  6.4269E-39  2.3020E-39  6.5472E-39  3.8178E-40  5.1517E-39  6.2509E-41 -1.7478E-39  4.4441E-42
       5.0888E-45  2.6178E-41 -6.9778E-40  1.0459E-41  4.6503E-41 -1.3814E-40  1.1598E-40 -5.2951E-42  1.3415E-40  4.6546E-42
       4.3048E-41  3.5448E-43  2.3193E-42  9.2407E-42  1.2030E-42  4.3769E-42  1.5088E-42  8.1009E-42  6.4016E-43  3.3308E-42
       2.6207E-44  4.5139E-44  1.0931E-42  1.1855E-43  1.7685E-43  2.9058E-43  5.8548E-44  1.3666E-45  4.1986E-45  2.6641E-45
      -3.4432E-47  8.3307E-47

 CONCENTRATION WILL BE SAVED ON UNIT 1036 AT END OF TIME STEP   10, STRESS PERIOD    1


  MASS BUDGET FOR ENTIRE MODEL AT END OF TIME STEP   10, STRESS PERIOD   1
  ---------------------------------------------------------------------------------------------------

     CUMULATIVE MASS      M       RATES FOR THIS TIME STEP      M/T          PACKAGE NAME    
     ------------------                 ------------------------                     ----------------

           IN:                                      IN:
           ---                                      ---
     STORAGE-AQUEOUS =   586030032.5328       STORAGE-AQUEOUS =       7.7496E-02     MST                              
                 DRN =           0.0000                   DRN =           0.0000     SSM_DRN_0                        
                 GHB =           0.0000                   GHB =           0.0000     SSM_GHB_0                        
                RCHA =           0.0000                  RCHA =           0.0000     SSM_RCHA_0                       
                EVTA =           0.0000                  EVTA =           0.0000     SSM_EVTA_0                       
     FLOW-CORRECTION = 22672154619.1495       FLOW-CORRECTION =           0.2419                                      
                 CNC =247094110337.9343                   CNC =         174.4009     CNC_0                            

            TOTAL IN =270352294989.6165              TOTAL IN =         174.7203

          OUT:                                     OUT:
          ----                                     ----
     STORAGE-AQUEOUS = 11073481399.0241       STORAGE-AQUEOUS =           2.6379     MST                              
                 DRN = 78136743329.8956                   DRN =          51.4946     SSM_DRN_0                        
                 GHB =   291244899.4666                   GHB =           0.4047     SSM_GHB_0                        
                RCHA =           0.0000                  RCHA =           0.0000     SSM_RCHA_0                       
                EVTA =  1734584590.6266                  EVTA =           1.3220     SSM_EVTA_0                       
     FLOW-CORRECTION = 32179011381.2788       FLOW-CORRECTION =           0.2168                                      
                 CNC =146937220669.7049                   CNC =         118.6443     CNC_0                            

           TOTAL OUT =270352286269.9966             TOTAL OUT =         174.7203

            IN - OUT =        8719.6199              IN - OUT =      -1.4222E-08

 PERCENT DISCREPANCY =           0.00     PERCENT DISCREPANCY =          -0.00




         TIME SUMMARY AT END OF TIME STEP   10 IN STRESS PERIOD    1
                    SECONDS     MINUTES      HOURS       DAYS        YEARS
                    -----------------------------------------------------------
   TIME STEP LENGTH 2.52288E+08 4.20480E+06  70080.      2920.0      7.9945    
 STRESS PERIOD TIME 2.52288E+09 4.20480E+07 7.00800E+05  29200.      79.945    
         TOTAL TIME 2.52288E+09 4.20480E+07 7.00800E+05  29200.      79.945    


end timestep

