                                   MODFLOW 6
                U.S. GEOLOGICAL SURVEY MODULAR HYDROLOGIC MODEL
                            VERSION 6.6.0 12/20/2024

   MODFLOW 6 compiled Dec 31 2024 17:10:16 with Intel(R) Fortran Intel(R) 64
   Compiler Classic for applications running on Intel(R) 64, Version 2021.7.0
                             Build 20220726_000000

This software has been approved for release by the U.S. Geological 
Survey (USGS). Although the software has been subjected to rigorous 
review, the USGS reserves the right to update the software as needed 
pursuant to further analysis and review. No warranty, expressed or 
implied, is made by the USGS or the U.S. Government as to the 
functionality of the software and related material nor shall the 
fact of release constitute any such warranty. Furthermore, the 
software is released on condition that neither the USGS nor the U.S. 
Government shall be held liable for any damages resulting from its 
authorized or unauthorized use. Also refer to the USGS Water 
Resources Software User Rights Notice for complete use, copyright, 
and distribution information.


As a work of the United States Government, this USGS product is 
in the public domain within the United States. You can copy, 
modify, distribute, and perform the work, even for commercial 
purposes, all without asking permission. Additionally, USGS 
waives copyright and related rights in the work worldwide 
through CC0 1.0 Universal Public Domain Dedication 
(https://creativecommons.org/publicdomain/zero/1.0/).

The following GNU Lesser General Public License (LGPL) libraries
are used in this USGS product:

    SPARSKIT version 2.0
      ilut, luson, and qsplit 
      (https://www-users.cse.umn.edu/~saad/software/SPARSKIT/)

    RCM - Reverse Cuthill McKee Ordering
      (https://people.math.sc.edu/Burkardt/f_src/rcm/rcm.html)

    BLAS - Basic Linear Algebra Subprograms Level 1
      (https://people.math.sc.edu/Burkardt/f_src/blas1_d/blas1_d.html)

    SPARSEKIT - Sparse Matrix Utility Package
      amux, dperm, dvperm, rperm, and cperm
      (https://people.sc.fsu.edu/~jburkardt/f77_src/sparsekit/sparsekit.html)

The following BSD-3 License libraries are used in this USGS product:

    Modern Fortran DAG Library
      Copyright (c) 2018, Jacob Williams
      All rights reserved.
      (https://github.com/jacobwilliams/daglib)

MODFLOW 6 compiler options: /O2 /heap-arrays:0 /fpe:0 /traceback /nologo /fpp
/c /module:win64\mod_mf6\ /object:win64\obj_mf6\

System command used to initiate simulation:
C:\Users\saulm\Documents\GitHub\examplesMf6VoronoiMining\p4ContaminantPlumeTailingsStorageMF6\bin\mf6.exe

MODFLOW was compiled using uniform precision.

Real Variables
  KIND: 8
  TINY (smallest non-zero value):    2.225074-308
  HUGE (largest value):    1.797693+308
  PRECISION: 15
  SIZE IN BITS: 64

Integer Variables
  KIND: 4
  HUGE (largest value): 2147483647
  SIZE IN BITS: 32

Long Integer Variables
  KIND: 8
  HUGE (largest value): 9223372036854775807
  SIZE IN BITS: 64

Logical Variables
  KIND: 4
  SIZE IN BITS: 32
 

 OPENED mfsim.nam
 FILE TYPE:NAM6               UNIT 1001   STATUS:OLD                 
 FORMAT:FORMATTED              ACCESS:SEQUENTIAL          
 ACTION:READ                

 # File generated by Flopy version 3.9.3 on 09/05/2025 at 16:06:09.

 OPENED mf6Model.tdis
 FILE TYPE:TDIS6              UNIT 1002   STATUS:OLD                 
 FORMAT:FORMATTED              ACCESS:SEQUENTIAL          
 ACTION:READ                

 # File generated by Flopy version 3.9.3 on 09/05/2025 at 16:06:09.

 OPENED mf6Model.nam
 FILE TYPE:GWF6               UNIT 1003   STATUS:OLD                 
 FORMAT:FORMATTED              ACCESS:SEQUENTIAL          
 ACTION:READ                

 # File generated by Flopy version 3.9.3 on 09/05/2025 at 16:06:09.

 OPENED mf6Model.disv
 FILE TYPE:DISV6              UNIT 1004   STATUS:OLD                 
 FORMAT:FORMATTED              ACCESS:SEQUENTIAL          
 ACTION:READ                

 # File generated by Flopy version 3.9.3 on 09/05/2025 at 16:06:09.

 OPENED mf6Model.npf
 FILE TYPE:NPF6               UNIT 1005   STATUS:OLD                 
 FORMAT:FORMATTED              ACCESS:SEQUENTIAL          
 ACTION:READ                

 # File generated by Flopy version 3.9.3 on 09/05/2025 at 16:06:10.

 OPENED mf6Model.sto
 FILE TYPE:STO6               UNIT 1006   STATUS:OLD                 
 FORMAT:FORMATTED              ACCESS:SEQUENTIAL          
 ACTION:READ                

 # File generated by Flopy version 3.9.3 on 09/05/2025 at 16:06:11.

 OPENED mf6Model.ic
 FILE TYPE:IC6                UNIT 1007   STATUS:OLD                 
 FORMAT:FORMATTED              ACCESS:SEQUENTIAL          
 ACTION:READ                

 # File generated by Flopy version 3.9.3 on 09/05/2025 at 16:06:10.

 OPENED mf6Model.oc
 FILE TYPE:OC6       UNIT 1008   STATUS:OLD                 
 FORMAT:FORMATTED              ACCESS:SEQUENTIAL          
 ACTION:READ                


 OPENED mf6Model.drn
 FILE TYPE:DRN6               UNIT 1009   STATUS:OLD                 
 FORMAT:FORMATTED              ACCESS:SEQUENTIAL          
 ACTION:READ                

 # File generated by Flopy version 3.9.3 on 09/05/2025 at 16:06:11.

 OPENED mf6Model.ghb
 FILE TYPE:GHB6               UNIT 1010   STATUS:OLD                 
 FORMAT:FORMATTED              ACCESS:SEQUENTIAL          
 ACTION:READ                

 # File generated by Flopy version 3.9.3 on 09/05/2025 at 16:06:11.

 OPENED mf6Model.rcha
 FILE TYPE:RCH6               UNIT 1012   STATUS:OLD                 
 FORMAT:FORMATTED              ACCESS:SEQUENTIAL          
 ACTION:READ                

 # File generated by Flopy version 3.9.3 on 09/05/2025 at 16:06:11.

 OPENED mf6Model.evta
 FILE TYPE:EVT6               UNIT 1014   STATUS:OLD                 
 FORMAT:FORMATTED              ACCESS:SEQUENTIAL          
 ACTION:READ                

 # File generated by Flopy version 3.9.3 on 09/05/2025 at 16:06:11.

 OPENED gwtModel.nam
 FILE TYPE:GWT6               UNIT 1015   STATUS:OLD                 
 FORMAT:FORMATTED              ACCESS:SEQUENTIAL          
 ACTION:READ                

 # File generated by Flopy version 3.9.3 on 09/05/2025 at 16:06:11.

 OPENED gwtModel.disv
 FILE TYPE:DISV6              UNIT 1016   STATUS:OLD                 
 FORMAT:FORMATTED              ACCESS:SEQUENTIAL          
 ACTION:READ                

 # File generated by Flopy version 3.9.3 on 09/05/2025 at 16:06:11.

 OPENED gwtModel.ic
 FILE TYPE:IC6                UNIT 1017   STATUS:OLD                 
 FORMAT:FORMATTED              ACCESS:SEQUENTIAL          
 ACTION:READ                

 # File generated by Flopy version 3.9.3 on 09/05/2025 at 16:06:12.

 OPENED gwtModel.fmi
 FILE TYPE:FMI6      UNIT 1018   STATUS:OLD                 
 FORMAT:FORMATTED              ACCESS:SEQUENTIAL          
 ACTION:READ                


 OPENED gwtModel.mst
 FILE TYPE:MST6      UNIT 1019   STATUS:OLD                 
 FORMAT:FORMATTED              ACCESS:SEQUENTIAL          
 ACTION:READ                


 OPENED gwtModel.adv
 FILE TYPE:ADV6      UNIT 1020   STATUS:OLD                 
 FORMAT:FORMATTED              ACCESS:SEQUENTIAL          
 ACTION:READ                


 OPENED gwtModel.dsp
 FILE TYPE:DSP6               UNIT 1021   STATUS:OLD                 
 FORMAT:FORMATTED              ACCESS:SEQUENTIAL          
 ACTION:READ                

 # File generated by Flopy version 3.9.3 on 09/05/2025 at 16:06:12.

 OPENED gwtModel.ssm
 FILE TYPE:SSM6      UNIT 1022   STATUS:OLD                 
 FORMAT:FORMATTED              ACCESS:SEQUENTIAL          
 ACTION:READ                


 OPENED gwtModel.oc
 FILE TYPE:OC6       UNIT 1023   STATUS:OLD                 
 FORMAT:FORMATTED              ACCESS:SEQUENTIAL          
 ACTION:READ                


 OPENED gwtModel.obs
 FILE TYPE:OBS6      UNIT 1024   STATUS:OLD                 
 FORMAT:FORMATTED              ACCESS:SEQUENTIAL          
 ACTION:READ                


 OPENED gwtModel.cnc
 FILE TYPE:CNC6               UNIT 1025   STATUS:OLD                 
 FORMAT:FORMATTED              ACCESS:SEQUENTIAL          
 ACTION:READ                

 # File generated by Flopy version 3.9.3 on 09/05/2025 at 16:06:12.

 READING SIMULATION OPTIONS
    SIMULATION WILL CONTINUE EVEN IF THERE IS NONCONVERGENCE.
    MAXIMUM NUMBER OF ERRORS THAT WILL BE STORED IS 1000
 END OF SIMULATION OPTIONS

 READING SIMULATION TIMING

 TDIS -- TEMPORAL DISCRETIZATION PACKAGE,
 VERSION 1 : 11/13/2014 - INPUT READ FROM MEMPATH: __INPUT__/SIM/TDIS                                
 PROCESSING TDIS OPTIONS
    SIMULATION TIME UNIT IS SECONDS
 END OF TDIS OPTIONS
 PROCESSING TDIS DIMENSIONS
    1 STRESS PERIOD(S) IN SIMULATION
 END OF TDIS DIMENSIONS
 PROCESSING TDIS PERIODDATA


 STRESS PERIOD     LENGTH       TIME STEPS     MULTIPLIER FOR DELT
 ----------------------------------------------------------------------------
        1        2.5228800E+09     10                    1.000
 END OF TDIS PERIODDATA
 END OF SIMULATION TIMING

 READING SIMULATION MODELS
    GWF6 model 1 will be created
    GWT6 model 2 will be created
 END OF SIMULATION MODELS

 READING SIMULATION EXCHANGES
 END OF SIMULATION EXCHANGES

 READING SOLUTIONGROUP

 Creating solution: SLN_1           

 OPENED mf6Model_0.ims
 FILE TYPE:IMS   UNIT 1028   STATUS:OLD                 
 FORMAT:FORMATTED              ACCESS:SEQUENTIAL          
 ACTION:READ                

 END OF SOLUTIONGROUP

PROCESSING MODEL CONNECTIONS

 IMS -- ITERATIVE MODEL SOLUTION PACKAGE, VERSION 6, 4/28/2017
         INPUT READ FROM UNIT 1028
 # File generated by Flopy version 3.9.3 on 09/05/2025 at 16:06:09.

 PROCESSING IMS OPTIONS
 END OF IMS OPTIONS

 PROCESSING IMS NONLINEAR
 END OF IMS NONLINEAR DATA
 ***UNDER-RELAXATION WILL NOT BE USED***
 

 PROCESSING LINEAR DATA
 END OF LINEAR DATA
 ***IMS LINEAR SOLVER WILL BE USED***

 IMSLINEAR -- UNSTRUCTURED LINEAR SOLUTION PACKAGE, VERSION 8, 04/28/2017
 An asymmetric matrix will be solved

 OUTER ITERATION CONVERGENCE CRITERION    (DVCLOSE) =    0.100000E-03
 MAXIMUM NUMBER OF OUTER ITERATIONS        (MXITER) = 25
 SOLVER PRINTOUT INDEX                     (IPRIMS) = 1
 NONLINEAR ITERATION METHOD            (NONLINMETH) = 0
 LINEAR SOLUTION METHOD                   (LINMETH) = 1

       SOLUTION BY THE BICONJUGATE-GRADIENT STABILIZED METHOD
 ------------------------------------------------------------------
 MAXIMUM OF 25 CALLS OF SOLUTION ROUTINE
 MAXIMUM OF 50 INTERNAL ITERATIONS PER CALL TO SOLUTION ROUTINE
 LINEAR ACCELERATION METHOD            = BCGS      
 MATRIX PRECONDITIONING TYPE           = INCOMPLETE LU       
 MATRIX SCALING APPROACH               = NO SCALING          
 MATRIX REORDERING APPROACH            = ORIGINAL ORDERING        
 NUMBER OF ORTHOGONALIZATIONS          = 0
 HEAD CHANGE CRITERION FOR CLOSURE     =    0.10000E-03
 RESIDUAL CHANGE CRITERION FOR CLOSURE =    0.10000E+00
 RESIDUAL CONVERGENCE OPTION           = 0
 RESIDUAL CONVERGENCE NORM             = INFINITY NORM   
 RELAXATION FACTOR                     =    0.00000E+00



 
    Solving:  Stress period:     1    Time step:     1
 
1
 STRESS PERIOD NO. 1, LENGTH =  0.2522880E+10
 ------------------------------------------
 NUMBER OF TIME STEPS = 10
 MULTIPLIER FOR DELT =     1.000
 INITIAL TIME STEP SIZE =  0.2522880E+09



 PSEUDO-TRANSIENT CONTINUATION WILL BE APPLIED TO MODEL 1 ("MF6MODEL") DURING THIS TIME STEP

 SLN_1 OUTER ITERATION SUMMARY
 ----------------------------------------------------------------------------------------------------------
                                OUTER      INNER                    STEP   MAXIMUM CHANGE MODEL-(CELLID) OR
 OUTER ITERATION STEP       ITERATION  ITERATION  MAXIMUM CHANGE SUCCESS             MODEL-PACKAGE-(NUMBER)
 ----------------------------------------------------------------------------------------------------------
 Model                              1         40       1099.9436                             2_GWT-(4,5032)
 Model                              2         50       606.57926                             2_GWT-(8,2669)
 Model                              3         50       428.97564                             2_GWT-(5,2669)
 Model                              4         50       359.97888                             2_GWT-(3,2665)
 Model                              5         50       497.03772                             2_GWT-(4,2658)
 Model                              6         50       346.84147                             2_GWT-(2,2707)
 Model                              7         50       245.84362                             2_GWT-(3,3352)
 Model                              8         50       177.33139                             2_GWT-(8,6329)
 Model                              9         50       189.89565                             2_GWT-(4,3410)
 Model                             10         50       135.07681                             2_GWT-(3,3410)
 Model                             11         50       110.18823                             2_GWT-(3,3410)
 Model                             12         50       116.92003                             2_GWT-(3,3410)
 Model                             13         50       92.976422                             2_GWT-(3,3410)
 Model                             14         50       105.34128                             2_GWT-(3,3410)
 Model                             15         50       56.165897                             2_GWT-(3,3410)
 Model                             16         50       65.012050                             2_GWT-(3,3410)
 Model                             17         50       43.198508                             2_GWT-(3,3410)
 Model                             18         50       42.056562                             2_GWT-(3,5033)
 Model                             19         50       41.722231                             2_GWT-(3,5033)
 Model                             20         50       32.415281                             2_GWT-(3,5033)
 Model                             21         50       37.717401                             2_GWT-(3,5033)
 Model                             22         50       41.140994                             2_GWT-(3,5033)
 Model                             23         50       30.481136                             2_GWT-(3,5033)
 Model                             24         50       25.647985                             2_GWT-(3,5033)
 Model                             25         50       26.690754                             2_GWT-(3,5033)
 ----------------------------------------------------------------------------------------------------------


 Solution 1 did not converge for stress period 1 and time step 1
 Solution Group 1 did not converge for stress period 1 and time step 1
 
    Solving:  Stress period:     1    Time step:     2
 



 PSEUDO-TRANSIENT CONTINUATION WILL BE APPLIED TO MODEL 1 ("MF6MODEL") DURING THIS TIME STEP

 SLN_1 OUTER ITERATION SUMMARY
 ----------------------------------------------------------------------------------------------------------
                                OUTER      INNER                    STEP   MAXIMUM CHANGE MODEL-(CELLID) OR
 OUTER ITERATION STEP       ITERATION  ITERATION  MAXIMUM CHANGE SUCCESS             MODEL-PACKAGE-(NUMBER)
 ----------------------------------------------------------------------------------------------------------
 Model                              1         38      -1175.5503                             2_GWT-(8,4427)
 Model                              2         50       988.52066                             2_GWT-(6,3068)
 Model                              3         50       815.76289                             2_GWT-(7,3728)
 Model                              4         50       239.44063                             2_GWT-(3,3596)
 Model                              5         50       32.040047                             2_GWT-(3,3596)
 Model                              6         50      -4.6644089                             1_GWF-(9,2814)
 Model                              7         50       3.6292180                             2_GWT-(3,3596)
 Model                              8         12       3.0087670                             2_GWT-(3,3596)
 Model                              9         50      0.96005790                             2_GWT-(3,3596)
 Model                             10         22     -0.28012940                             1_GWF-(9,2722)
 Model                             11         11  1.25501409E-02                             1_GWF-(9,1744)
 Model                             12          6  5.06575847E-03                             1_GWF-(7,3128)
 Model                             13         19  1.42187528E-02                             1_GWF-(9,3121)
 Model                             14         50       1.0191187                             2_GWT-(1,5785)
 Model                             15         16      -1.0190082                             2_GWT-(1,5785)
 Model                             16         27  5.30986565E-03                             1_GWF-(9,3121)
 Model                             17          4  1.08436737E-03                             1_GWF-(1,2722)
 Model                             18          6 -1.63632022E-03                             1_GWF-(1,2722)
 Model                             19          6  2.19585270E-03                             1_GWF-(5,2722)
 Model                             20          5 -2.25467813E-03                             1_GWF-(9,2722)
 Model                             21          4  1.96822162E-03                             1_GWF-(7,2722)
 Model                             22         12  2.62707233E-03                             1_GWF-(9,3121)
 Model                             23          3  6.55885483E-04                             1_GWF-(9,2722)
 Model                             24          3 -4.25931955E-04                            1_GWF-(19,1749)
 Model                             25          3  4.05003792E-04                            1_GWF-(19,1638)
 ----------------------------------------------------------------------------------------------------------


 Solution 1 did not converge for stress period 1 and time step 2
 Solution Group 1 did not converge for stress period 1 and time step 2
 
    Solving:  Stress period:     1    Time step:     3
 



 PSEUDO-TRANSIENT CONTINUATION WILL BE APPLIED TO MODEL 1 ("MF6MODEL") DURING THIS TIME STEP

 SLN_1 OUTER ITERATION SUMMARY
 ----------------------------------------------------------------------------------------------------------
                                OUTER      INNER                    STEP   MAXIMUM CHANGE MODEL-(CELLID) OR
 OUTER ITERATION STEP       ITERATION  ITERATION  MAXIMUM CHANGE SUCCESS             MODEL-PACKAGE-(NUMBER)
 ----------------------------------------------------------------------------------------------------------
 Model                              1         18       1200.0336                             2_GWT-(6,5150)
 Model                              2          7     -0.45935542                             2_GWT-(2,5857)
 Model                              3          2 -1.70574324E-04                             2_GWT-(9,3520)
 Model                              4          1 -4.81413627E-05       *                     2_GWT-(2,2715)
 ----------------------------------------------------------------------------------------------------------


 4 CALLS TO NUMERICAL SOLUTION IN TIME STEP 3 STRESS PERIOD 1
 28 TOTAL ITERATIONS
 
    Solving:  Stress period:     1    Time step:     4
 



 PSEUDO-TRANSIENT CONTINUATION WILL BE APPLIED TO MODEL 1 ("MF6MODEL") DURING THIS TIME STEP

 SLN_1 OUTER ITERATION SUMMARY
 ----------------------------------------------------------------------------------------------------------
                                OUTER      INNER                    STEP   MAXIMUM CHANGE MODEL-(CELLID) OR
 OUTER ITERATION STEP       ITERATION  ITERATION  MAXIMUM CHANGE SUCCESS             MODEL-PACKAGE-(NUMBER)
 ----------------------------------------------------------------------------------------------------------
 Model                              1         16       1199.9995                             2_GWT-(9,3924)
 Model                              2         19      -20.422398                             2_GWT-(2,6662)
 Model                              3          2 -1.20572049E-04                             2_GWT-(9,2679)
 Model                              4          1  6.81991071E-05       *                     2_GWT-(9,2679)
 ----------------------------------------------------------------------------------------------------------


 4 CALLS TO NUMERICAL SOLUTION IN TIME STEP 4 STRESS PERIOD 1
 38 TOTAL ITERATIONS
 
    Solving:  Stress period:     1    Time step:     5
 



 PSEUDO-TRANSIENT CONTINUATION WILL BE APPLIED TO MODEL 1 ("MF6MODEL") DURING THIS TIME STEP

 SLN_1 OUTER ITERATION SUMMARY
 ----------------------------------------------------------------------------------------------------------
                                OUTER      INNER                    STEP   MAXIMUM CHANGE MODEL-(CELLID) OR
 OUTER ITERATION STEP       ITERATION  ITERATION  MAXIMUM CHANGE SUCCESS             MODEL-PACKAGE-(NUMBER)
 ----------------------------------------------------------------------------------------------------------
 Model                              1         15       2467.9005                             2_GWT-(1,6663)
 Model                              2         18      -2454.3107                             2_GWT-(1,6663)
 Model                              3          4 -3.01206519E-02                             2_GWT-(2,6639)
 Model                              4          1  4.54637131E-05       *                    2_GWT-(10,3318)
 ----------------------------------------------------------------------------------------------------------


 4 CALLS TO NUMERICAL SOLUTION IN TIME STEP 5 STRESS PERIOD 1
 38 TOTAL ITERATIONS
 
    Solving:  Stress period:     1    Time step:     6
 



 PSEUDO-TRANSIENT CONTINUATION WILL BE APPLIED TO MODEL 1 ("MF6MODEL") DURING THIS TIME STEP

 SLN_1 OUTER ITERATION SUMMARY
 ----------------------------------------------------------------------------------------------------------
                                OUTER      INNER                    STEP   MAXIMUM CHANGE MODEL-(CELLID) OR
 OUTER ITERATION STEP       ITERATION  ITERATION  MAXIMUM CHANGE SUCCESS             MODEL-PACKAGE-(NUMBER)
 ----------------------------------------------------------------------------------------------------------
 Model                              1         14      -1199.9986                             2_GWT-(9,3729)
 Model                              2          4 -5.00176138E-02                             2_GWT-(5,3081)
 Model                              3          1 -4.85155635E-05       *                    2_GWT-(10,2826)
 ----------------------------------------------------------------------------------------------------------


 3 CALLS TO NUMERICAL SOLUTION IN TIME STEP 6 STRESS PERIOD 1
 19 TOTAL ITERATIONS
 
    Solving:  Stress period:     1    Time step:     7
 



 PSEUDO-TRANSIENT CONTINUATION WILL BE APPLIED TO MODEL 1 ("MF6MODEL") DURING THIS TIME STEP

 SLN_1 OUTER ITERATION SUMMARY
 ----------------------------------------------------------------------------------------------------------
                                OUTER      INNER                    STEP   MAXIMUM CHANGE MODEL-(CELLID) OR
 OUTER ITERATION STEP       ITERATION  ITERATION  MAXIMUM CHANGE SUCCESS             MODEL-PACKAGE-(NUMBER)
 ----------------------------------------------------------------------------------------------------------
 Model                              1         16      -1199.9979                             2_GWT-(6,3352)
 Model                              2          2     -0.11453858                             2_GWT-(2,6721)
 Model                              3          1  5.12279455E-05       *                     2_GWT-(1,6648)
 ----------------------------------------------------------------------------------------------------------


 3 CALLS TO NUMERICAL SOLUTION IN TIME STEP 7 STRESS PERIOD 1
 19 TOTAL ITERATIONS
 
    Solving:  Stress period:     1    Time step:     8
 



 PSEUDO-TRANSIENT CONTINUATION WILL BE APPLIED TO MODEL 1 ("MF6MODEL") DURING THIS TIME STEP

 SLN_1 OUTER ITERATION SUMMARY
 ----------------------------------------------------------------------------------------------------------
                                OUTER      INNER                    STEP   MAXIMUM CHANGE MODEL-(CELLID) OR
 OUTER ITERATION STEP       ITERATION  ITERATION  MAXIMUM CHANGE SUCCESS             MODEL-PACKAGE-(NUMBER)
 ----------------------------------------------------------------------------------------------------------
 Model                              1         13       1148.9587                             2_GWT-(7,2892)
 Model                              2         14      -2.9134282                             2_GWT-(2,6289)
 Model                              3          1  8.90510048E-05       *                    2_GWT-(10,3511)
 ----------------------------------------------------------------------------------------------------------


 3 CALLS TO NUMERICAL SOLUTION IN TIME STEP 8 STRESS PERIOD 1
 28 TOTAL ITERATIONS
 
    Solving:  Stress period:     1    Time step:     9
 



 PSEUDO-TRANSIENT CONTINUATION WILL BE APPLIED TO MODEL 1 ("MF6MODEL") DURING THIS TIME STEP

 SLN_1 OUTER ITERATION SUMMARY
 ----------------------------------------------------------------------------------------------------------
                                OUTER      INNER                    STEP   MAXIMUM CHANGE MODEL-(CELLID) OR
 OUTER ITERATION STEP       ITERATION  ITERATION  MAXIMUM CHANGE SUCCESS             MODEL-PACKAGE-(NUMBER)
 ----------------------------------------------------------------------------------------------------------
 Model                              1         13       1129.5489                             2_GWT-(9,1744)
 Model                              2          5  1.14449328E-03                             2_GWT-(7,2934)
 Model                              3          2 -1.16886733E-04                              2_GWT-(2,429)
 Model                              4          1  1.78457993E-05       *                     2_GWT-(8,3508)
 ----------------------------------------------------------------------------------------------------------


 4 CALLS TO NUMERICAL SOLUTION IN TIME STEP 9 STRESS PERIOD 1
 21 TOTAL ITERATIONS
 
    Solving:  Stress period:     1    Time step:    10
 



 PSEUDO-TRANSIENT CONTINUATION WILL BE APPLIED TO MODEL 1 ("MF6MODEL") DURING THIS TIME STEP

 SLN_1 OUTER ITERATION SUMMARY
 ----------------------------------------------------------------------------------------------------------
                                OUTER      INNER                    STEP   MAXIMUM CHANGE MODEL-(CELLID) OR
 OUTER ITERATION STEP       ITERATION  ITERATION  MAXIMUM CHANGE SUCCESS             MODEL-PACKAGE-(NUMBER)
 ----------------------------------------------------------------------------------------------------------
 Model                              1         13       1140.1314                             2_GWT-(9,3121)
 Model                              2          2  2.84381320E-04                             2_GWT-(7,3273)
 Model                              3          1 -7.58233482E-05       *                     2_GWT-(7,3273)
 ----------------------------------------------------------------------------------------------------------


 3 CALLS TO NUMERICAL SOLUTION IN TIME STEP 10 STRESS PERIOD 1
 16 TOTAL ITERATIONS

 MEMORY MANAGER TOTAL STORAGE BY DATA TYPE, IN MEGABYTES
 -------------------------------
                    ALLOCATED   
 DATA TYPE           MEMORY     
 -------------------------------
 Character        1.57440000E-02
 Logical          6.40000000E-05
 Integer          138.21348     
 Real             278.93892     
 -------------------------------
 Total            417.16821     
 Virtual          0.0000000     
 -------------------------------


 
 Run end date and time (yyyy/mm/dd hh:mm:ss): 2025/09/05 16:07:48
 Elapsed run time:  1 Minutes, 36.172 Seconds

WARNING REPORT:

  1.  Simulation convergence failure occurred 2 time(s).
 Normal termination of simulation.
